*SOIL WATER DAILY OUTPUT FILE

*DSSAT Cropping System Model Ver. 4.0.2.000               Aug 03, 2016; 14:38:57

*RUN   1        : UYMZ                    
 MODEL          : MZCER040 - Maize           
 EXPERIMENT     : UYMZ0123 MZ    late to create DSS                             
 TREATMENT  1   : UYMZ                    

@YEAR DOY   DAS  SWXD   ROFC   DRNC   PREC  IR#C  IRRC  DTWT   SW1D   SW2D   SW3D   SW4D   SW5D   SW6D   SW7D   SW8D   SW9D   SW10
 1987 184     0   130      0      0     13     0     0   125  0.552  0.437  0.394  0.335  0.375  0.419  0.408  0.395  0.000  0.000
 1987 185     1   127      0      0     13     0     0   125  0.462  0.452  0.395  0.335  0.376  0.418  0.408  0.395  0.000  0.000
 1987 186     2   125      0      0     13     0     0   125  0.406  0.451  0.397  0.336  0.376  0.418  0.408  0.395  0.000  0.000
 1987 187     3   156      0      0     13     1    34   125  0.517  0.563  0.494  0.336  0.377  0.417  0.408  0.395  0.000  0.000
 1987 188     4   154      0      0     13     1    34   125  0.507  0.535  0.503  0.339  0.377  0.417  0.408  0.395  0.000  0.000
 1987 189     5   153      0      0     13     1    34   125  0.493  0.521  0.503  0.342  0.378  0.416  0.408  0.395  0.000  0.000
 1987 190     6   152      0      0     13     1    34   125  0.493  0.511  0.501  0.345  0.378  0.416  0.408  0.395  0.000  0.000
 1987 191     7   149      0      0     13     1    34   125  0.452  0.506  0.500  0.348  0.378  0.415  0.408  0.395  0.000  0.000
 1987 192     8   184      0      0     49     1    34   125  0.561  0.560  0.565  0.441  0.379  0.415  0.408  0.395  0.000  0.000
 1987 193     9   182      0      0     49     1    34   125  0.513  0.553  0.556  0.439  0.398  0.415  0.408  0.395  0.000  0.000
 1987 194    10   181      0      0     49     1    34   125  0.520  0.537  0.550  0.438  0.408  0.414  0.408  0.395  0.000  0.000
 1987 195    11   179      0      0     49     1    34   125  0.502  0.533  0.545  0.437  0.412  0.414  0.407  0.395  0.000  0.000
 1987 196    12   178      0      0     49     1    34   125  0.488  0.527  0.541  0.436  0.413  0.414  0.407  0.395  0.000  0.000
 1987 197    13   176      0      0     49     1    34   125  0.483  0.522  0.537  0.435  0.414  0.414  0.407  0.395  0.000  0.000
 1987 198    14   175      0      0     49     1    34   125  0.488  0.517  0.534  0.435  0.415  0.414  0.407  0.395  0.000  0.000
 1987 199    15   174      0      0     49     1    34   125  0.475  0.515  0.531  0.434  0.416  0.414  0.407  0.395  0.000  0.000
 1987 200    16   173      0      0     49     1    34   125  0.472  0.510  0.528  0.433  0.417  0.414  0.407  0.395  0.000  0.000
 1987 201    17   172      0      0     49     1    34   125  0.471  0.507  0.525  0.432  0.417  0.414  0.407  0.395  0.000  0.000
 1987 202    18   171      0      0     49     1    34   125  0.470  0.504  0.523  0.431  0.418  0.414  0.407  0.395  0.000  0.000
 1987 203    19   170      0      0     49     1    34   125  0.469  0.501  0.520  0.430  0.418  0.414  0.407  0.395  0.000  0.000
 1987 204    20   182      0      0     61     1    34   125  0.563  0.558  0.526  0.429  0.418  0.414  0.407  0.395  0.000  0.000
 1987 205    21   191      0      0     72     1    34   125  0.541  0.564  0.570  0.446  0.424  0.414  0.407  0.395  0.000  0.000
 1987 206    22   189      0      0     72     1    34   125  0.503  0.555  0.559  0.443  0.431  0.419  0.408  0.395  0.000  0.000
 1987 207    23   201      0      0     85     1    34   125  0.569  0.559  0.568  0.469  0.444  0.422  0.411  0.395  0.000  0.000
 1987 208    24   208      0      1     93     1    34   125  0.548  0.568  0.568  0.470  0.460  0.430  0.417  0.399  0.000  0.000
 1987 209    25   197      0      9     93     1    34   125  0.498  0.557  0.557  0.457  0.449  0.426  0.414  0.397  0.000  0.000
 1987 210    26   191      0     14     93     1    34   125  0.514  0.535  0.551  0.449  0.442  0.423  0.411  0.397  0.000  0.000
 1987 211    27   202      0     15    107     1    34   125  0.528  0.564  0.565  0.467  0.449  0.425  0.414  0.399  0.000  0.000
 1987 212    28   194      0     21    107     1    34   125  0.505  0.548  0.556  0.455  0.442  0.423  0.412  0.397  0.000  0.000
 1987 213    29   188      0     25    107     1    34   125  0.485  0.533  0.549  0.448  0.437  0.421  0.410  0.397  0.000  0.000
 1987 214    30   183      0     26    107     1    34   125  0.462  0.524  0.542  0.444  0.435  0.421  0.410  0.397  0.000  0.000
 1987 215    31   181      0     27    107     1    34   125  0.464  0.516  0.537  0.441  0.433  0.421  0.410  0.397  0.000  0.000
 1987 216    32   180      0     27    107     1    34   125  0.465  0.511  0.533  0.439  0.433  0.421  0.410  0.397  0.000  0.000
 1987 217    33   192      0     27    120     1    34   125  0.568  0.565  0.542  0.439  0.433  0.422  0.410  0.397  0.000  0.000
 1987 218    34   198      0     27    127     1    34   125  0.551  0.568  0.568  0.451  0.438  0.422  0.411  0.398  0.000  0.000
 1987 219    35   211      0     28    143     1    34   125  0.532  0.568  0.568  0.470  0.460  0.438  0.423  0.403  0.000  0.000
 1987 220    36   200      0     38    143     1    34   125  0.513  0.552  0.557  0.457  0.449  0.431  0.417  0.400  0.000  0.000
 1987 221    37   191      0     44    143     1    34   125  0.489  0.536  0.551  0.449  0.442  0.426  0.413  0.398  0.000  0.000
 1987 222    38   187      0     47    143     1    34   125  0.502  0.526  0.543  0.445  0.437  0.423  0.411  0.398  0.000  0.000
 1987 223    39   183      0     49    143     1    34   125  0.473  0.523  0.539  0.442  0.435  0.422  0.410  0.398  0.000  0.000
 1987 224    40   190      0     49    151     1    34   125  0.566  0.547  0.540  0.440  0.434  0.421  0.411  0.398  0.000  0.000
 1987 225    41   189      0     50    151     1    34   125  0.537  0.544  0.542  0.440  0.433  0.421  0.411  0.398  0.000  0.000
 1987 226    42   197      0     50    162     1    34   125  0.541  0.565  0.567  0.450  0.437  0.422  0.411  0.398  0.000  0.000
 1987 227    43   204      0     51    171     1    34   125  0.541  0.567  0.568  0.470  0.452  0.425  0.414  0.399  0.000  0.000
 1987 228    44   194      0     58    171     1    34   125  0.484  0.555  0.557  0.457  0.444  0.422  0.411  0.398  0.000  0.000
 1987 229    45   189      0     62    171     1    34   125  0.506  0.531  0.549  0.449  0.439  0.421  0.410  0.398  0.000  0.000
 1987 230    46   188      0     62    171     1    34   125  0.507  0.527  0.543  0.447  0.439  0.422  0.411  0.398  0.000  0.000
 1987 231    47   185      0     63    171     1    34   125  0.492  0.525  0.539  0.443  0.436  0.422  0.410  0.398  0.000  0.000
 1987 232    48   183      0     64    171     1    34   125  0.483  0.520  0.535  0.440  0.434  0.422  0.410  0.398  0.000  0.000
 1987 233    49   181      0     64    171     1    34   125  0.479  0.515  0.532  0.440  0.434  0.422  0.410  0.398  0.000  0.000
 1987 234    50   180      0     64    171     1    34   125  0.470  0.510  0.528  0.439  0.434  0.422  0.410  0.398  0.000  0.000
 1987 235    51   178      0     64    171     1    34   125  0.467  0.506  0.525  0.438  0.434  0.422  0.410  0.398  0.000  0.000
 1987 236    52   177      0     64    171     1    34   125  0.464  0.502  0.522  0.436  0.434  0.422  0.410  0.398  0.000  0.000
 1987 237    53   176      0     64    171     1    34   125  0.462  0.498  0.519  0.435  0.434  0.422  0.410  0.398  0.000  0.000
 1987 238    54   175      0     64    171     1    34   125  0.460  0.495  0.515  0.434  0.433  0.422  0.410  0.398  0.000  0.000
 1987 239    55   174      0     64    171     1    34   125  0.458  0.491  0.513  0.433  0.433  0.422  0.410  0.398  0.000  0.000
 1987 240    56   208      0     64    207     1    34   125  0.559  0.566  0.566  0.469  0.460  0.431  0.417  0.400  0.000  0.000
 1987 241    57   223      1     85    243     1    34   125  0.550  0.567  0.567  0.470  0.460  0.447  0.439  0.432  0.000  0.000
 1987 242    58   205      1     99    243     1    34   125  0.489  0.556  0.555  0.457  0.449  0.436  0.427  0.417  0.000  0.000
 1987 243    59   193      1    108    243     1    34   125  0.472  0.531  0.547  0.449  0.442  0.429  0.419  0.408  0.000  0.000
 1987 244    60   186      1    112    243     1    34   125  0.465  0.520  0.539  0.445  0.437  0.425  0.415  0.403  0.000  0.000
 1987 245    61   183      1    115    243     1    34   125  0.472  0.513  0.534  0.441  0.435  0.423  0.412  0.400  0.000  0.000
 1987 246    62   179      1    116    243     1    34   125  0.459  0.508  0.528  0.439  0.433  0.421  0.410  0.398  0.000  0.000
 1987 247    63   177      1    116    243     1    34   125  0.454  0.502  0.523  0.438  0.433  0.421  0.410  0.398  0.000  0.000
 1987 248    64   176      1    116    243     1    34   125  0.451  0.497  0.520  0.436  0.433  0.421  0.410  0.398  0.000  0.000
 1987 249    65   174      1    116    243     1    34   125  0.448  0.493  0.516  0.435  0.433  0.421  0.410  0.398  0.000  0.000
 1987 250    66   173      1    116    243     1    34   125  0.446  0.489  0.513  0.434  0.433  0.421  0.410  0.398  0.000  0.000
 1987 251    67   172      1    116    243     1    34   125  0.444  0.486  0.511  0.432  0.433  0.421  0.410  0.398  0.000  0.000
 1987 252    68   171      1    116    243     1    34   125  0.443  0.484  0.509  0.431  0.432  0.421  0.410  0.398  0.000  0.000
 1987 253    69   170      1    116    243     1    34   125  0.440  0.480  0.506  0.430  0.432  0.421  0.410  0.398  0.000  0.000
 1987 254    70   169      1    116    243     1    34   125  0.437  0.476  0.502  0.429  0.432  0.421  0.410  0.398  0.000  0.000
 1987 255    71   167      1    116    243     1    34   125  0.434  0.473  0.498  0.428  0.431  0.421  0.410  0.398  0.000  0.000
 1987 256    72   166      1    116    243     1    34   125  0.431  0.469  0.495  0.426  0.431  0.421  0.410  0.398  0.000  0.000
 1987 257    73   165      1    116    243     1    34   125  0.428  0.467  0.493  0.425  0.430  0.421  0.410  0.398  0.000  0.000
 1987 258    74   214      1    117    295     1    34   125  0.537  0.565  0.565  0.469  0.460  0.445  0.427  0.405  0.000  0.000
 1987 259    75   199      1    128    295     1    34   125  0.482  0.550  0.553  0.456  0.448  0.435  0.419  0.401  0.000  0.000
 1987 260    76   190      1    135    295     1    34   125  0.483  0.527  0.544  0.448  0.441  0.428  0.415  0.399  0.000  0.000
 1987 261    77   184      1    138    295     1    34   125  0.466  0.519  0.538  0.444  0.437  0.425  0.412  0.397  0.000  0.000
 1987 262    78   180      1    139    295     1    34   125  0.454  0.510  0.530  0.440  0.435  0.422  0.410  0.397  0.000  0.000
 1987 263    79   177      1    140    295     1    34   125  0.449  0.502  0.524  0.439  0.433  0.421  0.410  0.397  0.000  0.000
 1987 264    80   175      1    140    295     1    34   125  0.446  0.496  0.520  0.437  0.433  0.421  0.410  0.397  0.000  0.000
 1987 265    81   174      1    140    295     1    34   125  0.443  0.491  0.516  0.435  0.433  0.421  0.410  0.397  0.000  0.000
 1987 266    82   172      1    140    295     1    34   125  0.441  0.487  0.513  0.433  0.433  0.421  0.410  0.397  0.000  0.000
 1987 267    83   171      1    140    295     1    34   125  0.437  0.482  0.508  0.432  0.433  0.421  0.410  0.397  0.000  0.000
 1987 268    84   169      1    140    295     1    34   125  0.434  0.478  0.504  0.430  0.432  0.421  0.410  0.397  0.000  0.000
 1987 269    85   168      1    140    295     1    34   125  0.430  0.473  0.500  0.428  0.432  0.421  0.410  0.397  0.000  0.000
 1987 270    86   166      1    140    295     1    34   125  0.426  0.469  0.496  0.426  0.431  0.421  0.410  0.397  0.000  0.000
 1987 271    87   164      1    140    295     1    34   125  0.422  0.463  0.490  0.424  0.431  0.421  0.410  0.397  0.000  0.000
 1987 272    88   162      1    140    295     1    34   125  0.418  0.458  0.486  0.422  0.430  0.421  0.410  0.397  0.000  0.000
 1987 273    89   175      1    140    309     1    34   125  0.555  0.521  0.484  0.421  0.429  0.421  0.410  0.397  0.000  0.000
 1987 274    90   171      1    140    309     1    34   125  0.486  0.520  0.484  0.419  0.428  0.421  0.410  0.397  0.000  0.000
 1987 275    91   167      1    140    309     1    34   125  0.453  0.503  0.483  0.416  0.428  0.421  0.410  0.397  0.000  0.000
 1987 276    92   164      1    140    309     1    34   125  0.437  0.489  0.481  0.415  0.427  0.421  0.410  0.397  0.000  0.000
 1987 277    93   161      1    140    309     1    34   125  0.424  0.476  0.476  0.412  0.426  0.421  0.410  0.397  0.000  0.000
 1987 278    94   157      1    140    309     1    34   125  0.413  0.464  0.470  0.409  0.424  0.421  0.410  0.397  0.000  0.000
 1987 279    95   155      1    140    309     1    34   125  0.404  0.455  0.466  0.406  0.423  0.421  0.410  0.397  0.000  0.000
 1987 280    96   153      1    140    309     1    34   125  0.397  0.450  0.464  0.405  0.422  0.421  0.410  0.397  0.000  0.000
 1987 281    97   152      1    140    312     1    34   125  0.423  0.443  0.459  0.402  0.420  0.420  0.410  0.397  0.000  0.000
 1987 282    98   149      1    140    312     1    34   125  0.407  0.435  0.452  0.398  0.418  0.420  0.410  0.397  0.000  0.000
 1987 283    99   145      1    140    312     1    34   125  0.394  0.428  0.445  0.393  0.416  0.420  0.410  0.397  0.000  0.000
 1987 284   100   196      1    140    336     2    65   125  0.546  0.563  0.562  0.462  0.431  0.421  0.410  0.397  0.000  0.000
 1987 285   101   203      1    140    347     2    65   125  0.529  0.561  0.561  0.465  0.458  0.427  0.415  0.399  0.000  0.000
 1987 286   102   192      1    147    347     2    65   125  0.510  0.541  0.547  0.450  0.445  0.424  0.412  0.397  0.000  0.000
 1987 287   103   187      1    150    347     2    65   125  0.517  0.529  0.540  0.442  0.438  0.422  0.410  0.397  0.000  0.000
 1987 288   104   198      1    150    360     2    65   125  0.565  0.565  0.562  0.448  0.439  0.422  0.412  0.398  0.000  0.000
 1987 289   105   190      1    155    360     2    65   125  0.529  0.549  0.551  0.440  0.433  0.421  0.410  0.397  0.000  0.000
 1987 290   106   184      1    156    360     2    65   125  0.505  0.533  0.542  0.432  0.429  0.421  0.410  0.397  0.000  0.000
 1987 291   107   178      1    156    360     2    65   125  0.489  0.520  0.532  0.426  0.424  0.420  0.410  0.397  0.000  0.000
 1987 292   108   174      1    156    360     2    65   125  0.479  0.511  0.524  0.421  0.420  0.420  0.410  0.397  0.000  0.000
 1987 293   109   169      1    156    360     2    65   125  0.468  0.500  0.514  0.414  0.414  0.419  0.410  0.397  0.000  0.000
 1987 294   110   163      1    156    360     2    65   125  0.451  0.491  0.505  0.408  0.408  0.418  0.410  0.397  0.000  0.000
 1987 295   111   159      1    156    360     2    65   125  0.440  0.482  0.498  0.403  0.403  0.416  0.410  0.397  0.000  0.000
 1987 296   112   154      1    156    360     2    65   125  0.423  0.472  0.490  0.397  0.396  0.415  0.410  0.397  0.000  0.000
 1987 297   113   149      1    156    360     2    65   125  0.415  0.464  0.482  0.392  0.391  0.413  0.410  0.397  0.000  0.000
 1987 298   114   147      1    156    360     2    65   125  0.415  0.458  0.478  0.389  0.389  0.412  0.410  0.397  0.000  0.000
 1987 299   115   145      1    156    360     2    65   125  0.415  0.453  0.473  0.386  0.387  0.411  0.410  0.397  0.000  0.000
 1987 300   116   143      1    156    360     2    65   125  0.415  0.449  0.469  0.384  0.386  0.410  0.410  0.397  0.000  0.000
 1987 301   117   139      1    156    360     2    65   125  0.407  0.442  0.462  0.380  0.383  0.408  0.410  0.397  0.000  0.000
 1987 302   118   133      1    156    360     2    65   125  0.394  0.431  0.451  0.375  0.377  0.405  0.409  0.397  0.000  0.000
 1987 303   119   157      1    156    360     3    94   125  0.555  0.559  0.488  0.370  0.373  0.401  0.409  0.397  0.000  0.000
 1987 304   120   150      1    156    360     3    94   125  0.526  0.533  0.488  0.368  0.370  0.396  0.409  0.397  0.000  0.000
 1987 305   121   147      1    156    360     3    94   125  0.519  0.518  0.485  0.367  0.368  0.394  0.409  0.397  0.000  0.000
 1987 306   122   145      1    156    361     3    94   125  0.522  0.509  0.482  0.367  0.367  0.391  0.408  0.397  0.000  0.000
 1987 307   123   142      1    156    361     3    94   125  0.504  0.503  0.478  0.366  0.366  0.389  0.408  0.397  0.000  0.000
 1987 308   124   140      1    156    361     3    94   125  0.497  0.497  0.475  0.366  0.366  0.388  0.407  0.397  0.000  0.000
 1987 309   125   152      1    156    375     3    94   125  0.561  0.562  0.495  0.366  0.365  0.387  0.407  0.397  0.000  0.000
 1987 310   126   166      1    156    391     3    94   125  0.559  0.555  0.567  0.398  0.364  0.386  0.407  0.397  0.000  0.000
 1987 311   127   160      1    156    391     3    94   125  0.533  0.540  0.544  0.407  0.363  0.383  0.406  0.397  0.000  0.000
 1987 312   128   158      1    156    394     3    94   125  0.559  0.540  0.534  0.403  0.363  0.381  0.404  0.397  0.000  0.000
 1987 313   129   154      1    156    395     3    94   125  0.541  0.536  0.526  0.397  0.362  0.378  0.401  0.397  0.000  0.000
 1987 314   130   148      1    156    395     3    94   125  0.519  0.528  0.518  0.390  0.361  0.376  0.395  0.396  0.000  0.000
 1987 315   131   142      1    156    395     3    94   125  0.508  0.516  0.509  0.385  0.360  0.375  0.388  0.396  0.000  0.000
 1987 316   132   137      1    156    395     3    94   125  0.498  0.506  0.502  0.382  0.360  0.373  0.381  0.396  0.000  0.000
 1987 317   133   131      1    156    395     3    94   125  0.486  0.496  0.493  0.378  0.359  0.371  0.375  0.395  0.000  0.000
 1987 318   134   201     21    156    490     3    94   125  0.568  0.559  0.558  0.466  0.459  0.432  0.388  0.395  0.000  0.000
 1987 319   135   192     21    159    490     3    94   125  0.545  0.547  0.547  0.450  0.443  0.423  0.404  0.395  0.000  0.000
 1987 320   136   195     21    159    500     3    94   125  0.553  0.562  0.562  0.453  0.441  0.420  0.404  0.395  0.000  0.000
 1987 321   137   186     21    162    500     3    94   125  0.534  0.550  0.550  0.441  0.431  0.414  0.400  0.395  0.000  0.000
 1987 322   138   183     21    162    500     3    94   125  0.534  0.541  0.545  0.437  0.428  0.415  0.398  0.395  0.000  0.000
 1987 323   139   220     23    183    564     3    94   125  0.567  0.563  0.565  0.467  0.458  0.445  0.437  0.431  0.000  0.000
 1987 324   140   205     23    197    564     3    94   125  0.551  0.554  0.555  0.453  0.445  0.433  0.423  0.417  0.000  0.000
 1987 325   141   201     23    199    569     3    94   125  0.552  0.564  0.557  0.448  0.440  0.425  0.418  0.415  0.000  0.000
 1987 326   142   189     23    205    569     3    94   125  0.534  0.552  0.547  0.438  0.431  0.418  0.408  0.407  0.000  0.000
 1987 327   143   186     23    206    569     3    94   125  0.535  0.543  0.543  0.436  0.429  0.417  0.406  0.402  0.000  0.000
 1987 328   144   182     23    207    569     3    94   125  0.534  0.538  0.540  0.433  0.426  0.415  0.403  0.399  0.000  0.000
 1987 329   145   180     23    207    571     3    94   125  0.555  0.540  0.536  0.430  0.422  0.412  0.399  0.397  0.000  0.000
 1987 330   146   176     23    207    571     3    94   125  0.539  0.539  0.534  0.427  0.419  0.409  0.397  0.396  0.000  0.000
 1987 331   147   171     23    207    571     3    94   125  0.525  0.533  0.529  0.423  0.415  0.405  0.392  0.396  0.000  0.000
 1987 332   148   164     23    207    571     3    94   125  0.515  0.524  0.523  0.417  0.409  0.399  0.386  0.394  0.000  0.000
 1987 333   149   157     23    207    571     3    94   125  0.503  0.515  0.516  0.412  0.403  0.394  0.381  0.393  0.000  0.000
 1987 334   150   150     23    207    571     3    94   125  0.492  0.506  0.509  0.406  0.397  0.389  0.376  0.390  0.000  0.000
 1987 335   151   142     23    207    571     3    94   125  0.478  0.496  0.500  0.399  0.389  0.384  0.372  0.387  0.000  0.000
 1987 336   152   137     23    207    571     3    94   125  0.474  0.489  0.494  0.395  0.386  0.381  0.370  0.385  0.000  0.000
 1987 337   153   135     23    207    571     3    94   125  0.474  0.485  0.491  0.393  0.385  0.380  0.370  0.384  0.000  0.000
 1987 338   154   208     42    207    665     3    94   125  0.579  0.566  0.564  0.468  0.459  0.446  0.406  0.383  0.000  0.000
 1987 339   155   206     42    207    669     3    94   125  0.552  0.563  0.563  0.465  0.455  0.436  0.416  0.390  0.000  0.000
 1987 340   156   192     42    214    669     3    94   125  0.533  0.549  0.549  0.449  0.440  0.424  0.408  0.393  0.000  0.000
 1987 341   157   187     42    217    669     3    94   125  0.535  0.540  0.545  0.443  0.435  0.420  0.406  0.394  0.000  0.000
 1987 342   158   186     42    217    673     3    94   125  0.559  0.552  0.543  0.439  0.431  0.417  0.401  0.392  0.000  0.000
 1987 343   159   180     42    217    673     3    94   125  0.537  0.544  0.539  0.433  0.426  0.414  0.398  0.389  0.000  0.000
 1987 344   160   173     42    217    673     3    94   125  0.525  0.536  0.534  0.428  0.420  0.408  0.392  0.386  0.000  0.000
 1987 345   161   169     42    217    673     3    94   125  0.524  0.529  0.530  0.425  0.417  0.405  0.389  0.384  0.000  0.000
 1987 346   162   163     42    217    674     3    94   125  0.532  0.522  0.524  0.420  0.412  0.400  0.384  0.382  0.000  0.000
 1987 347   163   157     42    217    674     3    94   125  0.508  0.520  0.518  0.415  0.407  0.394  0.379  0.379  0.000  0.000
 1987 348   164   153     42    217    674     3    94   125  0.506  0.514  0.514  0.412  0.404  0.391  0.377  0.377  0.000  0.000
 1987 349   165   147     42    217    674     3    94   125  0.496  0.507  0.509  0.408  0.399  0.388  0.374  0.374  0.000  0.000
 1987 350   166   203     42    217    732     3    94   125  0.567  0.564  0.565  0.468  0.458  0.440  0.399  0.373  0.000  0.000
 1987 351   167   199     42    217    734     3    94   125  0.552  0.562  0.557  0.459  0.453  0.432  0.410  0.375  0.000  0.000
 1987 352   168   191     42    219    734     3    94   125  0.534  0.550  0.547  0.447  0.440  0.423  0.405  0.393  0.000  0.000
 1987 353   169   183     42    221    734     3    94   125  0.525  0.539  0.541  0.438  0.432  0.417  0.403  0.392  0.000  0.000
 1987 354   170   178     42    221    734     3    94   125  0.523  0.531  0.536  0.434  0.428  0.412  0.398  0.390  0.000  0.000
 1987 355   171   171     42    221    734     3    94   125  0.511  0.525  0.530  0.429  0.423  0.407  0.394  0.387  0.000  0.000
 1987 356   172   166     42    221    734     3    94   125  0.507  0.519  0.525  0.425  0.419  0.404  0.390  0.385  0.000  0.000
 1987 357   173   161     42    221    734     3    94   125  0.498  0.513  0.519  0.421  0.415  0.399  0.386  0.382  0.000  0.000
 1987 358   174   154     42    221    734     3    94   125  0.486  0.506  0.513  0.416  0.409  0.394  0.381  0.379  0.000  0.000
 1987 359   175   152     42    221    734     3    94   125  0.488  0.501  0.510  0.414  0.408  0.393  0.380  0.378  0.000  0.000
 1987 360   176   149     42    221    734     3    94   125  0.483  0.497  0.506  0.411  0.405  0.391  0.378  0.377  0.000  0.000
 1987 361   177   178     42    221    769     3    94   125  0.556  0.562  0.562  0.465  0.433  0.389  0.375  0.374  0.000  0.000
 1987 362   178   174     42    221    769     3    94   125  0.535  0.550  0.550  0.451  0.429  0.400  0.373  0.372  0.000  0.000
 1987 363   179   180     42    221    777     3    94   125  0.567  0.563  0.564  0.453  0.435  0.400  0.373  0.371  0.000  0.000
 1987 364   180   180     42    221    781     3    94   125  0.558  0.566  0.566  0.456  0.438  0.401  0.371  0.369  0.000  0.000
 1987 365   181   201     42    221    807     3    94   125  0.549  0.566  0.566  0.466  0.454  0.441  0.400  0.366  0.000  0.000
 1988 001   182   192     42    223    807     3    94   125  0.519  0.553  0.553  0.451  0.441  0.425  0.401  0.393  0.000  0.000
 1988 002   183   183     42    224    807     3    94   125  0.510  0.535  0.545  0.441  0.433  0.417  0.402  0.392  0.000  0.000
 1988 003   184   176     42    224    807     3    94   125  0.501  0.525  0.537  0.435  0.428  0.413  0.397  0.389  0.000  0.000
 1988 004   185   168     42    224    807     3    94   125  0.482  0.517  0.529  0.429  0.422  0.407  0.392  0.386  0.000  0.000
 1988 005   186   186     42    224    829     3    94   125  0.566  0.561  0.562  0.457  0.432  0.406  0.390  0.384  0.000  0.000
 1988 006   187   183     42    224    832     3    94   125  0.534  0.563  0.559  0.453  0.435  0.404  0.385  0.381  0.000  0.000
 1988 007   188   176     42    224    832     3    94   125  0.504  0.547  0.548  0.443  0.428  0.410  0.381  0.379  0.000  0.000
 1988 008   189   169     42    224    832     3    94   125  0.496  0.529  0.540  0.436  0.426  0.407  0.378  0.376  0.000  0.000
 1988 009   190   162     42    224    832     3    94   125  0.477  0.519  0.532  0.431  0.421  0.402  0.375  0.373  0.000  0.000
 1988 010   191   156     42    224    832     3    94   125  0.458  0.509  0.525  0.426  0.417  0.397  0.373  0.371  0.000  0.000
 1988 011   192   150     42    224    832     3    94   125  0.442  0.499  0.518  0.422  0.413  0.394  0.371  0.369  0.000  0.000

*DSSAT Cropping System Model Ver. 4.0.2.000               Aug 03, 2016; 14:38:57

*RUN   2        : UYMZ                    
 MODEL          : MZCER040 - Maize           
 EXPERIMENT     : UYMZ0123 MZ    late to create DSS                             
 TREATMENT  1   : UYMZ                    

@YEAR DOY   DAS  SWXD   ROFC   DRNC   PREC  IR#C  IRRC  DTWT   SW1D   SW2D   SW3D   SW4D   SW5D   SW6D   SW7D   SW8D   SW9D   SW10
 1988 184     0   117      0      0      0     0     0   125  0.369  0.394  0.394  0.335  0.375  0.419  0.408  0.395  0.000  0.000
 1988 185     1   124      0      0      8     0     0   125  0.516  0.393  0.394  0.335  0.376  0.418  0.408  0.395  0.000  0.000
 1988 186     2   187      0      0     72     0     0   125  0.536  0.576  0.568  0.448  0.383  0.418  0.408  0.395  0.000  0.000
 1988 187     3   205      0      0     92     0     0   125  0.539  0.565  0.568  0.468  0.463  0.427  0.413  0.397  0.000  0.000
 1988 188     4   197      0      8     92     0     0   125  0.527  0.554  0.557  0.456  0.450  0.424  0.411  0.397  0.000  0.000
 1988 189     5   190      0     12     92     0     0   125  0.497  0.542  0.551  0.449  0.442  0.422  0.410  0.397  0.000  0.000
 1988 190     6   186      0     14     92     0     0   125  0.490  0.530  0.545  0.445  0.438  0.422  0.410  0.397  0.000  0.000
 1988 191     7   183      0     15     92     0     0   125  0.471  0.523  0.541  0.442  0.435  0.422  0.410  0.397  0.000  0.000
 1988 192     8   181      0     15     92     0     0   125  0.465  0.517  0.536  0.440  0.433  0.422  0.410  0.397  0.000  0.000
 1988 193     9   180      0     15     92     0     0   125  0.466  0.512  0.533  0.439  0.433  0.422  0.410  0.397  0.000  0.000
 1988 194    10   179      0     15     92     0     0   125  0.466  0.508  0.529  0.438  0.433  0.422  0.410  0.397  0.000  0.000
 1988 195    11   178      0     15     92     0     0   125  0.467  0.505  0.527  0.437  0.433  0.422  0.410  0.397  0.000  0.000
 1988 196    12   178      0     15     92     0     0   125  0.467  0.502  0.524  0.436  0.433  0.422  0.410  0.397  0.000  0.000
 1988 197    13   177      0     15     92     0     0   125  0.467  0.500  0.522  0.435  0.433  0.422  0.410  0.397  0.000  0.000
 1988 198    14   176      0     15     92     0     0   125  0.467  0.499  0.520  0.434  0.433  0.422  0.410  0.397  0.000  0.000
 1988 199    15   176      0     15     92     0     0   125  0.467  0.497  0.518  0.433  0.433  0.422  0.410  0.397  0.000  0.000
 1988 200    16   175      0     15     92     0     0   125  0.466  0.496  0.517  0.432  0.432  0.422  0.410  0.397  0.000  0.000
 1988 201    17   174      0     15     92     0     0   125  0.466  0.495  0.515  0.431  0.432  0.422  0.410  0.397  0.000  0.000
 1988 202    18   174      0     15     92     0     0   125  0.466  0.493  0.514  0.430  0.432  0.422  0.410  0.397  0.000  0.000
 1988 203    19   173      0     15     92     0     0   125  0.466  0.492  0.512  0.430  0.431  0.422  0.410  0.397  0.000  0.000
 1988 204    20   175      0     15     95     0     0   125  0.510  0.491  0.511  0.429  0.431  0.422  0.410  0.397  0.000  0.000
 1988 205    21   177      0     15     98     0     0   125  0.527  0.505  0.510  0.428  0.431  0.422  0.410  0.397  0.000  0.000
 1988 206    22   176      0     15     98     0     0   125  0.501  0.511  0.512  0.428  0.430  0.422  0.410  0.397  0.000  0.000
 1988 207    23   176      0     15     98     0     0   125  0.494  0.509  0.512  0.427  0.430  0.422  0.410  0.397  0.000  0.000
 1988 208    24   175      0     15     98     0     0   125  0.489  0.506  0.512  0.427  0.429  0.422  0.410  0.397  0.000  0.000
 1988 209    25   175      0     15     98     0     0   125  0.486  0.504  0.512  0.427  0.429  0.422  0.410  0.397  0.000  0.000
 1988 210    26   174      0     15     98     0     0   125  0.483  0.502  0.511  0.426  0.429  0.422  0.410  0.397  0.000  0.000
 1988 211    27   174      0     15     98     0     0   125  0.481  0.500  0.511  0.426  0.428  0.422  0.410  0.397  0.000  0.000
 1988 212    28   173      0     15     98     0     0   125  0.479  0.498  0.510  0.425  0.428  0.422  0.410  0.397  0.000  0.000
 1988 213    29   173      0     15     98     0     0   125  0.477  0.497  0.509  0.425  0.428  0.421  0.410  0.397  0.000  0.000
 1988 214    30   197      0     16    123     0     0   125  0.558  0.566  0.567  0.448  0.433  0.421  0.410  0.397  0.000  0.000
 1988 215    31   225      5     55    196     0     0   125  0.551  0.568  0.568  0.484  0.460  0.447  0.439  0.432  0.000  0.000
 1988 216    32   223      5     72    212     0     0   125  0.552  0.568  0.568  0.470  0.460  0.447  0.439  0.432  0.000  0.000
 1988 217    33   220      5     77    215     0     0   125  0.547  0.568  0.566  0.467  0.460  0.442  0.439  0.432  0.000  0.000
 1988 218    34   204      5     90    215     0     0   125  0.497  0.557  0.557  0.455  0.448  0.433  0.427  0.417  0.000  0.000
 1988 219    35   194      5     98    215     0     0   125  0.482  0.535  0.550  0.448  0.441  0.427  0.419  0.408  0.000  0.000
 1988 220    36   188      5    103    215     0     0   125  0.495  0.524  0.543  0.444  0.437  0.424  0.415  0.403  0.000  0.000
 1988 221    37   184      5    105    215     0     0   125  0.483  0.522  0.539  0.441  0.435  0.422  0.412  0.400  0.000  0.000
 1988 222    38   182      5    106    215     0     0   125  0.484  0.517  0.535  0.440  0.433  0.422  0.410  0.398  0.000  0.000
 1988 223    39   181      5    106    215     0     0   125  0.471  0.514  0.532  0.439  0.433  0.422  0.410  0.398  0.000  0.000
 1988 224    40   180      5    106    215     0     0   125  0.468  0.510  0.529  0.438  0.433  0.422  0.410  0.398  0.000  0.000
 1988 225    41   179      5    106    215     0     0   125  0.467  0.506  0.527  0.437  0.433  0.422  0.410  0.398  0.000  0.000
 1988 226    42   178      5    106    215     0     0   125  0.466  0.503  0.524  0.436  0.433  0.422  0.410  0.398  0.000  0.000
 1988 227    43   177      5    106    215     0     0   125  0.466  0.501  0.522  0.435  0.433  0.422  0.410  0.398  0.000  0.000
 1988 228    44   176      5    106    215     0     0   125  0.465  0.499  0.520  0.434  0.433  0.422  0.410  0.398  0.000  0.000
 1988 229    45   176      5    106    215     0     0   125  0.464  0.496  0.518  0.433  0.432  0.422  0.410  0.398  0.000  0.000
 1988 230    46   175      5    106    215     0     0   125  0.463  0.494  0.516  0.432  0.432  0.422  0.410  0.398  0.000  0.000
 1988 231    47   174      5    106    215     0     0   125  0.462  0.492  0.514  0.431  0.432  0.422  0.410  0.398  0.000  0.000
 1988 232    48   173      5    106    215     0     0   125  0.461  0.491  0.513  0.430  0.432  0.422  0.410  0.398  0.000  0.000
 1988 233    49   190      5    106    234     0     0   125  0.526  0.566  0.546  0.434  0.431  0.422  0.410  0.398  0.000  0.000
 1988 234    50   186      5    107    234     0     0   125  0.471  0.548  0.543  0.439  0.431  0.422  0.410  0.398  0.000  0.000
 1988 235    51   183      5    107    234     0     0   125  0.473  0.526  0.540  0.439  0.431  0.422  0.410  0.398  0.000  0.000
 1988 236    52   180      5    107    234     0     0   125  0.461  0.517  0.535  0.438  0.431  0.422  0.410  0.398  0.000  0.000
 1988 237    53   179      5    107    234     0     0   125  0.460  0.509  0.530  0.437  0.431  0.422  0.410  0.398  0.000  0.000
 1988 238    54   177      5    107    234     0     0   125  0.458  0.504  0.526  0.436  0.431  0.422  0.410  0.398  0.000  0.000
 1988 239    55   176      5    107    234     0     0   125  0.456  0.499  0.522  0.435  0.431  0.422  0.410  0.398  0.000  0.000
 1988 240    56   175      5    107    234     0     0   125  0.455  0.496  0.519  0.434  0.431  0.422  0.410  0.398  0.000  0.000
 1988 241    57   174      5    107    234     0     0   125  0.454  0.493  0.517  0.433  0.430  0.422  0.410  0.398  0.000  0.000
 1988 242    58   174      5    107    234     0     0   125  0.453  0.491  0.515  0.432  0.430  0.422  0.410  0.398  0.000  0.000
 1988 243    59   173      5    107    234     0     0   125  0.453  0.489  0.513  0.431  0.430  0.422  0.410  0.398  0.000  0.000
 1988 244    60   172      5    107    234     0     0   125  0.452  0.487  0.510  0.430  0.430  0.422  0.410  0.398  0.000  0.000
 1988 245    61   171      5    107    234     0     0   125  0.450  0.485  0.508  0.429  0.429  0.422  0.410  0.398  0.000  0.000
 1988 246    62   170      5    107    234     0     0   125  0.449  0.483  0.506  0.428  0.429  0.422  0.410  0.398  0.000  0.000
 1988 247    63   170      5    107    234     0     0   125  0.448  0.482  0.505  0.427  0.429  0.422  0.410  0.398  0.000  0.000
 1988 248    64   169      5    107    234     0     0   125  0.447  0.480  0.503  0.427  0.428  0.422  0.410  0.398  0.000  0.000
 1988 249    65   169      5    107    234     0     0   125  0.447  0.479  0.502  0.426  0.428  0.422  0.410  0.398  0.000  0.000
 1988 250    66   168      5    107    234     0     0   125  0.446  0.478  0.501  0.425  0.428  0.422  0.410  0.398  0.000  0.000
 1988 251    67   179      5    107    246     0     0   125  0.545  0.536  0.500  0.424  0.427  0.422  0.410  0.398  0.000  0.000
 1988 252    68   177      5    107    246     0     0   125  0.508  0.531  0.505  0.424  0.427  0.422  0.410  0.398  0.000  0.000
 1988 253    69   185      5    107    255     0     0   125  0.552  0.556  0.526  0.423  0.427  0.422  0.410  0.398  0.000  0.000
 1988 254    70   192      5    107    264     0     0   125  0.546  0.564  0.560  0.435  0.426  0.422  0.410  0.398  0.000  0.000
 1988 255    71   188      5    108    264     0     0   125  0.494  0.554  0.552  0.438  0.431  0.421  0.410  0.398  0.000  0.000
 1988 256    72   184      5    109    264     0     0   125  0.464  0.532  0.545  0.438  0.431  0.421  0.410  0.398  0.000  0.000
 1988 257    73   180      5    109    264     0     0   125  0.443  0.518  0.538  0.438  0.431  0.421  0.410  0.398  0.000  0.000
 1988 258    74   178      5    109    264     0     0   125  0.444  0.508  0.531  0.437  0.431  0.421  0.410  0.398  0.000  0.000
 1988 259    75   176      5    109    264     0     0   125  0.443  0.501  0.526  0.436  0.431  0.421  0.410  0.398  0.000  0.000
 1988 260    76   175      5    109    264     0     0   125  0.443  0.496  0.522  0.435  0.431  0.421  0.410  0.398  0.000  0.000
 1988 261    77   174      5    109    264     0     0   125  0.442  0.492  0.518  0.434  0.431  0.421  0.410  0.398  0.000  0.000
 1988 262    78   173      5    109    264     0     0   125  0.442  0.489  0.515  0.433  0.431  0.421  0.410  0.398  0.000  0.000
 1988 263    79   172      5    109    264     0     0   125  0.441  0.486  0.512  0.432  0.430  0.421  0.410  0.398  0.000  0.000
 1988 264    80   171      5    109    264     0     0   125  0.440  0.483  0.510  0.430  0.430  0.421  0.410  0.398  0.000  0.000
 1988 265    81   178      5    109    273     0     0   125  0.555  0.507  0.507  0.429  0.430  0.421  0.410  0.398  0.000  0.000
 1988 266    82   222      5    115    325     0     0   125  0.519  0.576  0.569  0.469  0.460  0.447  0.439  0.432  0.000  0.000
 1988 267    83   221      5    133    344     0     0   125  0.543  0.558  0.566  0.470  0.460  0.447  0.439  0.432  0.000  0.000
 1988 268    84   205      5    147    344     0     0   125  0.504  0.550  0.555  0.457  0.449  0.436  0.427  0.417  0.000  0.000
 1988 269    85   195      5    155    344     0     0   125  0.512  0.533  0.547  0.449  0.442  0.429  0.419  0.408  0.000  0.000
 1988 270    86   220      5    158    373     0     0   125  0.563  0.563  0.564  0.470  0.460  0.447  0.439  0.419  0.000  0.000
 1988 271    87   221      5    162    380     0     0   125  0.537  0.565  0.567  0.470  0.460  0.447  0.439  0.430  0.000  0.000
 1988 272    88   203      5    176    380     0     0   125  0.480  0.548  0.555  0.457  0.449  0.436  0.427  0.416  0.000  0.000
 1988 273    89   191      5    184    380     0     0   125  0.461  0.524  0.543  0.448  0.441  0.429  0.419  0.408  0.000  0.000
 1988 274    90   182      5    188    380     0     0   125  0.435  0.511  0.533  0.442  0.437  0.425  0.415  0.403  0.000  0.000
 1988 275    91   177      5    190    380     0     0   125  0.432  0.499  0.524  0.438  0.434  0.423  0.412  0.400  0.000  0.000
 1988 276    92   174      5    191    380     0     0   125  0.430  0.492  0.518  0.436  0.433  0.421  0.410  0.398  0.000  0.000
 1988 277    93   190      5    191    400     0     0   125  0.548  0.560  0.542  0.437  0.433  0.421  0.410  0.398  0.000  0.000
 1988 278    94   184      5    192    400     0     0   125  0.489  0.546  0.535  0.436  0.432  0.421  0.410  0.398  0.000  0.000
 1988 279    95   180      5    192    400     0     0   125  0.480  0.521  0.528  0.433  0.430  0.421  0.410  0.398  0.000  0.000
 1988 280    96   175      5    192    400     0     0   125  0.449  0.507  0.518  0.430  0.428  0.421  0.410  0.398  0.000  0.000
 1988 281    97   170      5    192    400     0     0   125  0.435  0.492  0.509  0.427  0.426  0.421  0.410  0.398  0.000  0.000
 1988 282    98   166      5    192    400     0     0   125  0.426  0.481  0.501  0.423  0.424  0.421  0.410  0.398  0.000  0.000
 1988 283    99   164      5    192    400     0     0   125  0.419  0.474  0.497  0.420  0.422  0.421  0.410  0.398  0.000  0.000
 1988 284   100   160      5    192    400     0     0   125  0.412  0.464  0.488  0.416  0.419  0.421  0.410  0.398  0.000  0.000
 1988 285   101   158      5    192    402     0     0   125  0.429  0.455  0.481  0.411  0.416  0.421  0.410  0.398  0.000  0.000
 1988 286   102   154      5    192    402     0     0   125  0.415  0.447  0.472  0.406  0.412  0.420  0.410  0.398  0.000  0.000
 1988 287   103   150      5    192    402     0     0   125  0.404  0.441  0.466  0.402  0.409  0.420  0.410  0.398  0.000  0.000
 1988 288   104   147      5    192    402     0     0   125  0.394  0.434  0.460  0.397  0.405  0.420  0.410  0.398  0.000  0.000
 1988 289   105   144      5    192    402     0     0   125  0.386  0.429  0.454  0.392  0.402  0.419  0.410  0.398  0.000  0.000
 1988 290   106   169      5    192    402     1    30   125  0.542  0.562  0.492  0.386  0.397  0.418  0.410  0.398  0.000  0.000
 1988 291   107   165      5    192    402     1    30   125  0.511  0.540  0.498  0.384  0.393  0.417  0.410  0.398  0.000  0.000
 1988 292   108   159      5    192    402     1    30   125  0.496  0.517  0.493  0.381  0.388  0.416  0.410  0.398  0.000  0.000
 1988 293   109   157      5    192    402     1    30   125  0.491  0.505  0.491  0.380  0.386  0.416  0.410  0.398  0.000  0.000
 1988 294   110   152      5    192    402     1    30   125  0.467  0.493  0.483  0.377  0.382  0.414  0.410  0.398  0.000  0.000
 1988 295   111   147      5    192    402     1    30   125  0.444  0.480  0.475  0.374  0.379  0.413  0.410  0.398  0.000  0.000
 1988 296   112   143      5    192    402     1    30   125  0.433  0.470  0.469  0.373  0.377  0.411  0.410  0.398  0.000  0.000
 1988 297   113   138      5    192    402     1    30   125  0.408  0.457  0.459  0.370  0.373  0.409  0.410  0.398  0.000  0.000
 1988 298   114   132      5    192    402     1    30   125  0.390  0.444  0.449  0.367  0.371  0.406  0.410  0.398  0.000  0.000
 1988 299   115   134      5    192    406     1    30   125  0.476  0.436  0.444  0.365  0.370  0.404  0.410  0.398  0.000  0.000
 1988 300   116   129      5    192    406     1    30   125  0.444  0.432  0.434  0.363  0.367  0.402  0.409  0.398  0.000  0.000
 1988 301   117   153      5    192    406     2    60   125  0.540  0.561  0.491  0.360  0.365  0.397  0.409  0.398  0.000  0.000
 1988 302   118   147      5    192    406     2    60   125  0.516  0.533  0.490  0.360  0.363  0.393  0.409  0.398  0.000  0.000
 1988 303   119   141      5    192    406     2    60   125  0.505  0.511  0.482  0.359  0.361  0.388  0.408  0.398  0.000  0.000
 1988 304   120   139      5    192    406     2    60   125  0.500  0.502  0.479  0.360  0.361  0.387  0.408  0.398  0.000  0.000
 1988 305   121   164      5    192    436     2    60   125  0.550  0.555  0.559  0.401  0.359  0.384  0.408  0.398  0.000  0.000
 1988 306   122   159      5    192    436     2    60   125  0.527  0.542  0.541  0.407  0.359  0.380  0.407  0.398  0.000  0.000
 1988 307   123   153      5    192    436     2    60   125  0.520  0.528  0.529  0.400  0.359  0.377  0.407  0.398  0.000  0.000
 1988 308   124   147      5    192    436     2    60   125  0.504  0.517  0.518  0.392  0.358  0.374  0.406  0.398  0.000  0.000
 1988 309   125   141      5    192    436     2    60   125  0.489  0.505  0.506  0.384  0.357  0.371  0.406  0.398  0.000  0.000
 1988 310   126   134      5    192    436     2    60   125  0.470  0.491  0.493  0.378  0.356  0.367  0.405  0.397  0.000  0.000
 1988 311   127   128      5    192    436     2    60   125  0.451  0.475  0.479  0.372  0.354  0.365  0.405  0.397  0.000  0.000
 1988 312   128   121      5    192    436     2    60   125  0.429  0.459  0.464  0.367  0.353  0.362  0.405  0.397  0.000  0.000
 1988 313   129   116      5    192    436     2    60   125  0.419  0.446  0.453  0.364  0.352  0.360  0.403  0.397  0.000  0.000
 1988 314   130   110      5    192    436     2    60   125  0.406  0.431  0.439  0.361  0.350  0.358  0.400  0.397  0.000  0.000
 1988 315   131   136      5    192    436     3    90   125  0.560  0.559  0.488  0.359  0.349  0.356  0.395  0.397  0.000  0.000
 1988 316   132   146      5    192    450     3    90   125  0.553  0.551  0.557  0.371  0.348  0.355  0.391  0.397  0.000  0.000
 1988 317   133   161      5    192    470     3    90   125  0.550  0.559  0.555  0.463  0.364  0.354  0.385  0.396  0.000  0.000
 1988 318   134   154      5    192    470     3    90   125  0.528  0.547  0.540  0.441  0.384  0.353  0.377  0.396  0.000  0.000
 1988 319   135   148      5    192    470     3    90   125  0.521  0.532  0.533  0.431  0.381  0.352  0.372  0.395  0.000  0.000
 1988 320   136   142      5    192    470     3    90   125  0.510  0.520  0.524  0.421  0.377  0.351  0.368  0.395  0.000  0.000
 1988 321   137   135      5    192    470     3    90   125  0.497  0.509  0.513  0.411  0.374  0.351  0.365  0.394  0.000  0.000
 1988 322   138   128      5    192    470     3    90   125  0.480  0.497  0.501  0.400  0.371  0.349  0.361  0.393  0.000  0.000
 1988 323   139   126      5    192    470     3    90   125  0.479  0.491  0.496  0.396  0.370  0.349  0.361  0.392  0.000  0.000
 1988 324   140   136      5    192    486     3    90   125  0.552  0.557  0.510  0.386  0.367  0.348  0.358  0.392  0.000  0.000
 1988 325   141   131      5    192    486     3    90   125  0.531  0.536  0.510  0.381  0.365  0.348  0.357  0.391  0.000  0.000
 1988 326   142   141      5    192    498     3    90   125  0.566  0.558  0.550  0.388  0.365  0.347  0.357  0.390  0.000  0.000
 1988 327   143   148      5    192    510     3    90   125  0.548  0.562  0.554  0.436  0.365  0.346  0.355  0.390  0.000  0.000
 1988 328   144   142      5    192    510     3    90   125  0.524  0.549  0.538  0.425  0.373  0.346  0.353  0.388  0.000  0.000
 1988 329   145   135      5    192    510     3    90   125  0.517  0.530  0.529  0.414  0.371  0.345  0.351  0.386  0.000  0.000
 1988 330   146   129      5    192    510     3    90   125  0.503  0.516  0.517  0.404  0.368  0.344  0.350  0.383  0.000  0.000
 1988 331   147   125      5    192    510     3    90   125  0.497  0.507  0.510  0.399  0.367  0.344  0.349  0.381  0.000  0.000
 1988 332   148   119      5    192    510     3    90   125  0.482  0.496  0.499  0.390  0.365  0.343  0.348  0.377  0.000  0.000
 1988 333   149   112      5    192    510     3    90   125  0.467  0.485  0.489  0.382  0.363  0.342  0.347  0.371  0.000  0.000
 1988 334   150   106      5    192    510     3    90   125  0.451  0.473  0.478  0.377  0.361  0.342  0.346  0.364  0.000  0.000
 1988 335   151    99      5    192    510     3    90   125  0.433  0.460  0.466  0.372  0.359  0.341  0.345  0.358  0.000  0.000
 1988 336   152    94      5    192    510     3    90   125  0.421  0.448  0.455  0.368  0.357  0.340  0.344  0.353  0.000  0.000
 1988 337   153    88      5    192    510     3    90   125  0.409  0.435  0.443  0.365  0.355  0.339  0.342  0.349  0.000  0.000
 1988 338   154   111      5    192    510     4   120   125  0.553  0.553  0.483  0.360  0.353  0.338  0.340  0.343  0.000  0.000
 1988 339   155   103      5    192    510     4   120   125  0.520  0.524  0.477  0.358  0.351  0.337  0.339  0.340  0.000  0.000
 1988 340   156    95      5    192    510     4   120   125  0.487  0.498  0.461  0.356  0.349  0.336  0.337  0.336  0.000  0.000
 1988 341   157    89      5    192    510     4   120   125  0.467  0.479  0.449  0.354  0.347  0.336  0.336  0.333  0.000  0.000
 1988 342   158    85      5    192    510     4   120   125  0.456  0.467  0.442  0.353  0.346  0.335  0.335  0.332  0.000  0.000
 1988 343   159    84      5    192    514     4   120   125  0.518  0.453  0.431  0.352  0.345  0.335  0.334  0.331  0.000  0.000
 1988 344   160    78      5    192    514     4   120   125  0.471  0.445  0.421  0.349  0.344  0.334  0.333  0.328  0.000  0.000
 1988 345   161    72      5    192    514     4   120   125  0.433  0.427  0.413  0.347  0.342  0.333  0.331  0.326  0.000  0.000
 1988 346   162    97      5    192    514     5   153   125  0.528  0.549  0.485  0.343  0.339  0.331  0.329  0.323  0.000  0.000
 1988 347   163    95      5    192    514     5   153   125  0.532  0.526  0.487  0.345  0.339  0.331  0.329  0.323  0.000  0.000
 1988 348   164   122      5    192    547     5   153   125  0.536  0.549  0.555  0.441  0.340  0.330  0.328  0.321  0.000  0.000
 1988 349   165   115      5    192    547     5   153   125  0.513  0.530  0.537  0.425  0.350  0.330  0.327  0.320  0.000  0.000
 1988 350   166   108      5    192    547     5   153   125  0.496  0.515  0.521  0.412  0.350  0.329  0.326  0.319  0.000  0.000
 1988 351   167   101      5    192    547     5   153   125  0.478  0.500  0.507  0.399  0.349  0.329  0.326  0.318  0.000  0.000
 1988 352   168    96      5    192    547     5   153   125  0.467  0.489  0.497  0.391  0.349  0.329  0.325  0.318  0.000  0.000
 1988 353   169    89      5    192    547     5   153   125  0.444  0.473  0.482  0.379  0.348  0.328  0.325  0.317  0.000  0.000
 1988 354   170    84      5    192    547     5   153   125  0.427  0.460  0.470  0.373  0.347  0.328  0.324  0.316  0.000  0.000
 1988 355   171    81      5    192    551     5   153   125  0.487  0.444  0.455  0.368  0.346  0.327  0.323  0.315  0.000  0.000
 1988 356   172    74      5    192    551     5   153   125  0.443  0.434  0.439  0.363  0.345  0.327  0.323  0.314  0.000  0.000
 1988 357   173    69      5    192    551     5   153   125  0.416  0.426  0.427  0.360  0.344  0.326  0.322  0.314  0.000  0.000
 1988 358   174    95      5    192    551     6   185   125  0.540  0.554  0.482  0.355  0.342  0.326  0.321  0.313  0.000  0.000
 1988 359   175    87      5    192    551     6   185   125  0.500  0.522  0.473  0.353  0.340  0.325  0.320  0.312  0.000  0.000
 1988 360   176    79      5    192    551     6   185   125  0.468  0.492  0.456  0.351  0.339  0.324  0.320  0.311  0.000  0.000
 1988 361   177    72      5    192    551     6   185   125  0.436  0.469  0.442  0.350  0.338  0.324  0.319  0.310  0.000  0.000
 1988 362   178    69      5    192    551     6   185   125  0.422  0.456  0.434  0.349  0.337  0.324  0.319  0.310  0.000  0.000
 1988 363   179    63      5    192    551     6   185   125  0.403  0.436  0.422  0.347  0.337  0.323  0.318  0.309  0.000  0.000
 1988 364   180    89      5    192    551     7   218   125  0.539  0.543  0.484  0.344  0.335  0.322  0.317  0.308  0.000  0.000
 1988 365   181    82      5    192    551     7   218   125  0.495  0.517  0.473  0.344  0.334  0.322  0.317  0.307  0.000  0.000
 1988 366   182    74      5    192    551     7   218   125  0.454  0.489  0.457  0.344  0.333  0.321  0.316  0.307  0.000  0.000
 1989 001   183    66      5    192    551     7   218   125  0.414  0.464  0.440  0.343  0.332  0.321  0.315  0.306  0.000  0.000
 1989 002   184    58      5    192    551     7   218   125  0.373  0.438  0.420  0.341  0.331  0.320  0.315  0.305  0.000  0.000
 1989 003   185    84      5    192    551     8   251   125  0.531  0.537  0.482  0.339  0.330  0.320  0.314  0.304  0.000  0.000
 1989 004   186    75      5    192    551     8   251   125  0.471  0.508  0.466  0.339  0.329  0.319  0.313  0.304  0.000  0.000
 1989 005   187    67      5    192    551     8   251   125  0.430  0.479  0.450  0.339  0.328  0.319  0.313  0.303  0.000  0.000

*DSSAT Cropping System Model Ver. 4.0.2.000               Aug 03, 2016; 14:38:57

*RUN   3        : UYMZ                    
 MODEL          : MZCER040 - Maize           
 EXPERIMENT     : UYMZ0123 MZ    late to create DSS                             
 TREATMENT  1   : UYMZ                    

@YEAR DOY   DAS  SWXD   ROFC   DRNC   PREC  IR#C  IRRC  DTWT   SW1D   SW2D   SW3D   SW4D   SW5D   SW6D   SW7D   SW8D   SW9D   SW10
 1989 184     0   117      0      0      0     0     0   125  0.368  0.394  0.394  0.335  0.375  0.419  0.408  0.395  0.000  0.000
 1989 185     1   116      0      0      0     0     0   125  0.351  0.393  0.394  0.335  0.376  0.418  0.408  0.395  0.000  0.000
 1989 186     2   114      0      0      0     0     0   125  0.311  0.392  0.394  0.336  0.376  0.418  0.408  0.395  0.000  0.000
 1989 187     3   155      0      0      0     1    43   125  0.538  0.566  0.478  0.336  0.377  0.417  0.408  0.395  0.000  0.000
 1989 188     4   154      0      0      0     1    43   125  0.529  0.545  0.489  0.338  0.377  0.417  0.408  0.395  0.000  0.000
 1989 189     5   152      0      0      0     1    43   125  0.504  0.530  0.493  0.341  0.378  0.416  0.408  0.395  0.000  0.000
 1989 190     6   151      0      0      0     1    43   125  0.484  0.517  0.494  0.343  0.378  0.416  0.408  0.395  0.000  0.000
 1989 191     7   150      0      0      0     1    43   125  0.486  0.506  0.493  0.346  0.378  0.415  0.408  0.395  0.000  0.000
 1989 192     8   148      0      0      0     1    43   125  0.466  0.501  0.492  0.348  0.379  0.415  0.408  0.395  0.000  0.000
 1989 193     9   148      0      0      0     1    43   125  0.464  0.494  0.491  0.351  0.379  0.415  0.408  0.395  0.000  0.000
 1989 194    10   146      0      0      0     1    43   125  0.442  0.489  0.489  0.353  0.379  0.414  0.408  0.395  0.000  0.000
 1989 195    11   145      0      0      0     1    43   125  0.432  0.483  0.487  0.355  0.380  0.414  0.407  0.395  0.000  0.000
 1989 196    12   144      0      0      0     1    43   125  0.425  0.477  0.484  0.357  0.380  0.414  0.407  0.395  0.000  0.000
 1989 197    13   143      0      0      0     1    43   125  0.420  0.473  0.482  0.358  0.381  0.413  0.407  0.395  0.000  0.000
 1989 198    14   142      0      0      0     1    43   125  0.416  0.468  0.480  0.360  0.381  0.413  0.407  0.395  0.000  0.000
 1989 199    15   142      0      0      0     1    43   125  0.412  0.465  0.478  0.361  0.381  0.413  0.407  0.395  0.000  0.000
 1989 200    16   141      0      0      0     1    43   125  0.409  0.461  0.476  0.363  0.382  0.412  0.407  0.395  0.000  0.000
 1989 201    17   140      0      0      0     1    43   125  0.406  0.458  0.474  0.364  0.382  0.412  0.407  0.395  0.000  0.000
 1989 202    18   140      0      0      0     1    43   125  0.403  0.456  0.472  0.365  0.382  0.412  0.407  0.395  0.000  0.000
 1989 203    19   139      0      0      0     1    43   125  0.400  0.453  0.470  0.366  0.383  0.411  0.407  0.395  0.000  0.000
 1989 204    20   140      0      0      1     1    43   125  0.420  0.451  0.469  0.367  0.383  0.411  0.407  0.395  0.000  0.000
 1989 205    21   172      0      0     36     1    43   125  0.525  0.567  0.557  0.379  0.383  0.411  0.407  0.395  0.000  0.000
 1989 206    22   169      0      0     36     1    43   125  0.489  0.549  0.547  0.396  0.384  0.411  0.407  0.395  0.000  0.000
 1989 207    23   172      0      0     41     1    43   125  0.540  0.548  0.545  0.403  0.385  0.410  0.407  0.395  0.000  0.000
 1989 208    24   171      0      0     41     1    43   125  0.512  0.544  0.541  0.408  0.386  0.410  0.406  0.395  0.000  0.000
 1989 209    25   170      0      0     42     1    43   125  0.526  0.534  0.537  0.410  0.387  0.410  0.406  0.395  0.000  0.000
 1989 210    26   169      0      0     42     1    43   125  0.503  0.532  0.534  0.412  0.388  0.410  0.406  0.395  0.000  0.000
 1989 211    27   167      0      0     42     1    43   125  0.488  0.525  0.531  0.413  0.389  0.410  0.406  0.395  0.000  0.000
 1989 212    28   165      0      0     42     1    43   125  0.464  0.518  0.527  0.413  0.390  0.409  0.406  0.395  0.000  0.000
 1989 213    29   163      0      0     42     1    43   125  0.461  0.509  0.523  0.414  0.391  0.409  0.406  0.394  0.000  0.000
 1989 214    30   162      0      0     42     1    43   125  0.459  0.503  0.520  0.414  0.392  0.409  0.406  0.394  0.000  0.000
 1989 215    31   161      0      0     42     1    43   125  0.458  0.499  0.516  0.414  0.393  0.409  0.406  0.394  0.000  0.000
 1989 216    32   165      0      0     48     1    43   125  0.538  0.503  0.514  0.414  0.394  0.409  0.406  0.394  0.000  0.000
 1989 217    33   164      0      0     48     1    43   125  0.485  0.513  0.513  0.414  0.395  0.409  0.406  0.394  0.000  0.000
 1989 218    34   162      0      0     48     1    43   125  0.476  0.507  0.512  0.414  0.396  0.408  0.406  0.394  0.000  0.000
 1989 219    35   161      0      0     48     1    43   125  0.470  0.502  0.511  0.413  0.397  0.408  0.405  0.394  0.000  0.000
 1989 220    36   161      0      0     48     1    43   125  0.466  0.498  0.509  0.413  0.398  0.408  0.405  0.394  0.000  0.000
 1989 221    37   180      0      0     69     1    43   125  0.561  0.564  0.554  0.422  0.398  0.408  0.405  0.394  0.000  0.000
 1989 222    38   184      0      0     75     1    43   125  0.532  0.567  0.566  0.442  0.401  0.408  0.405  0.394  0.000  0.000
 1989 223    39   184      0      0     75     1    43   125  0.529  0.553  0.561  0.447  0.410  0.408  0.405  0.394  0.000  0.000
 1989 224    40   180      0      0     75     1    43   125  0.477  0.542  0.553  0.442  0.425  0.408  0.405  0.394  0.000  0.000
 1989 225    41   178      0      0     75     1    43   125  0.476  0.525  0.545  0.440  0.431  0.408  0.405  0.394  0.000  0.000
 1989 226    42   176      0      0     75     1    43   125  0.456  0.518  0.540  0.440  0.431  0.408  0.405  0.394  0.000  0.000
 1989 227    43   174      0      0     75     1    43   125  0.455  0.510  0.535  0.440  0.430  0.408  0.405  0.394  0.000  0.000
 1989 228    44   173      0      0     75     1    43   125  0.455  0.505  0.530  0.439  0.430  0.409  0.405  0.394  0.000  0.000
 1989 229    45   171      0      0     75     1    43   125  0.454  0.500  0.526  0.438  0.430  0.409  0.405  0.394  0.000  0.000
 1989 230    46   170      0      0     75     1    43   125  0.453  0.496  0.522  0.436  0.430  0.409  0.405  0.394  0.000  0.000
 1989 231    47   169      0      0     75     1    43   125  0.453  0.494  0.519  0.435  0.430  0.409  0.405  0.394  0.000  0.000
 1989 232    48   187      0      0     94     1    43   125  0.562  0.565  0.549  0.439  0.431  0.409  0.404  0.394  0.000  0.000
 1989 233    49   188      0      0     96     1    43   125  0.549  0.566  0.552  0.443  0.434  0.410  0.404  0.394  0.000  0.000
 1989 234    50   222      1      7    140     1    43   125  0.549  0.567  0.567  0.470  0.460  0.447  0.439  0.432  0.000  0.000
 1989 235    51   205      1     22    140     1    43   125  0.502  0.555  0.556  0.457  0.449  0.436  0.427  0.417  0.000  0.000
 1989 236    52   195      1     30    140     1    43   125  0.505  0.534  0.549  0.449  0.442  0.429  0.419  0.408  0.000  0.000
 1989 237    53   188      1     35    140     1    43   125  0.478  0.525  0.541  0.445  0.437  0.425  0.415  0.403  0.000  0.000
 1989 238    54   183      1     37    140     1    43   125  0.467  0.517  0.535  0.442  0.435  0.423  0.412  0.400  0.000  0.000
 1989 239    55   179      1     39    140     1    43   125  0.453  0.510  0.530  0.439  0.433  0.421  0.410  0.398  0.000  0.000
 1989 240    56   177      1     39    140     1    43   125  0.449  0.502  0.525  0.438  0.433  0.421  0.410  0.398  0.000  0.000
 1989 241    57   175      1     39    140     1    43   125  0.446  0.496  0.520  0.437  0.433  0.421  0.410  0.398  0.000  0.000
 1989 242    58   174      1     39    140     1    43   125  0.443  0.492  0.517  0.435  0.433  0.421  0.410  0.398  0.000  0.000
 1989 243    59   196      1     39    164     1    43   125  0.559  0.565  0.565  0.445  0.435  0.421  0.411  0.398  0.000  0.000
 1989 244    60   189      1     43    164     1    43   125  0.485  0.554  0.554  0.442  0.434  0.421  0.411  0.398  0.000  0.000
 1989 245    61   185      1     44    164     1    43   125  0.472  0.530  0.546  0.440  0.434  0.421  0.411  0.398  0.000  0.000
 1989 246    62   181      1     44    164     1    43   125  0.450  0.519  0.538  0.440  0.434  0.421  0.411  0.398  0.000  0.000
 1989 247    63   179      1     44    164     1    43   125  0.450  0.509  0.532  0.439  0.434  0.421  0.411  0.398  0.000  0.000
 1989 248    64   178      1     44    164     1    43   125  0.450  0.503  0.527  0.438  0.434  0.421  0.411  0.398  0.000  0.000
 1989 249    65   186      1     44    176     1    43   125  0.526  0.551  0.528  0.437  0.434  0.421  0.411  0.398  0.000  0.000
 1989 250    66   182      1     44    176     1    43   125  0.476  0.534  0.531  0.436  0.434  0.421  0.411  0.398  0.000  0.000
 1989 251    67   179      1     44    176     1    43   125  0.461  0.518  0.527  0.435  0.433  0.421  0.411  0.398  0.000  0.000
 1989 252    68   177      1     44    176     1    43   125  0.449  0.507  0.523  0.434  0.433  0.421  0.411  0.398  0.000  0.000
 1989 253    69   175      1     44    176     1    43   125  0.444  0.499  0.519  0.433  0.433  0.421  0.411  0.398  0.000  0.000
 1989 254    70   180      1     44    182     1    43   125  0.557  0.498  0.516  0.432  0.433  0.421  0.411  0.398  0.000  0.000
 1989 255    71   179      1     44    182     1    43   125  0.504  0.514  0.516  0.431  0.432  0.421  0.411  0.398  0.000  0.000
 1989 256    72   178      1     44    183     1    43   125  0.507  0.511  0.515  0.430  0.432  0.421  0.411  0.398  0.000  0.000
 1989 257    73   176      1     44    183     1    43   125  0.482  0.509  0.514  0.429  0.432  0.421  0.411  0.398  0.000  0.000
 1989 258    74   175      1     44    186     1    43   125  0.501  0.501  0.509  0.428  0.431  0.421  0.411  0.398  0.000  0.000
 1989 259    75   173      1     44    186     1    43   125  0.461  0.499  0.507  0.427  0.431  0.421  0.411  0.398  0.000  0.000
 1989 260    76   170      1     44    186     1    43   125  0.445  0.490  0.502  0.425  0.430  0.421  0.411  0.398  0.000  0.000
 1989 261    77   167      1     44    186     1    43   125  0.432  0.481  0.496  0.423  0.429  0.421  0.411  0.398  0.000  0.000
 1989 262    78   164      1     44    186     1    43   125  0.422  0.472  0.490  0.421  0.429  0.421  0.411  0.398  0.000  0.000
 1989 263    79   162      1     44    186     1    43   125  0.414  0.463  0.484  0.419  0.428  0.421  0.411  0.398  0.000  0.000
 1989 264    80   159      1     44    186     1    43   125  0.406  0.454  0.478  0.416  0.427  0.421  0.411  0.398  0.000  0.000
 1989 265    81   183      1     44    212     1    43   125  0.559  0.564  0.519  0.415  0.426  0.421  0.411  0.398  0.000  0.000
 1989 266    82   209      1     45    240     1    43   125  0.550  0.560  0.568  0.470  0.460  0.433  0.419  0.401  0.000  0.000
 1989 267    83   198      1     54    240     1    43   125  0.527  0.550  0.555  0.457  0.448  0.427  0.415  0.399  0.000  0.000
 1989 268    84   191      1     59    240     1    43   125  0.513  0.537  0.546  0.448  0.441  0.424  0.412  0.397  0.000  0.000
 1989 269    85   185      1     61    240     1    43   125  0.498  0.527  0.538  0.442  0.437  0.422  0.410  0.397  0.000  0.000
 1989 270    86   181      1     62    240     1    43   125  0.474  0.516  0.530  0.438  0.434  0.422  0.410  0.397  0.000  0.000
 1989 271    87   178      1     62    240     1    43   125  0.463  0.507  0.524  0.435  0.433  0.422  0.410  0.397  0.000  0.000
 1989 272    88   173      1     62    240     1    43   125  0.431  0.497  0.516  0.432  0.432  0.422  0.410  0.397  0.000  0.000
 1989 273    89   170      1     62    240     1    43   125  0.419  0.485  0.508  0.428  0.431  0.422  0.410  0.397  0.000  0.000
 1989 274    90   166      1     62    240     1    43   125  0.411  0.476  0.501  0.425  0.429  0.422  0.410  0.397  0.000  0.000
 1989 275    91   164      1     62    240     1    43   125  0.405  0.469  0.497  0.423  0.428  0.422  0.410  0.397  0.000  0.000
 1989 276    92   161      1     62    240     1    43   125  0.399  0.460  0.488  0.418  0.426  0.422  0.410  0.397  0.000  0.000
 1989 277    93   157      1     62    240     1    43   125  0.393  0.450  0.480  0.413  0.423  0.422  0.410  0.397  0.000  0.000
 1989 278    94   153      1     62    240     1    43   125  0.386  0.441  0.471  0.408  0.420  0.422  0.410  0.397  0.000  0.000
 1989 279    95   150      1     62    240     1    43   125  0.379  0.433  0.464  0.403  0.417  0.421  0.410  0.397  0.000  0.000
 1989 280    96   150      1     62    244     1    43   125  0.439  0.428  0.458  0.398  0.414  0.421  0.410  0.397  0.000  0.000
 1989 281    97   147      1     62    244     1    43   125  0.415  0.426  0.451  0.394  0.411  0.421  0.410  0.397  0.000  0.000
 1989 282    98   143      1     62    244     1    43   125  0.399  0.422  0.443  0.387  0.407  0.421  0.410  0.397  0.000  0.000
 1989 283    99   170      1     62    244     2    74   125  0.548  0.565  0.491  0.383  0.404  0.420  0.410  0.397  0.000  0.000
 1989 284   100   167      1     62    244     2    74   125  0.527  0.543  0.499  0.383  0.401  0.420  0.410  0.397  0.000  0.000
 1989 285   101   167      1     62    245     2    74   125  0.548  0.527  0.500  0.383  0.400  0.419  0.410  0.397  0.000  0.000
 1989 286   102   164      1     62    245     2    74   125  0.514  0.524  0.498  0.382  0.397  0.419  0.410  0.397  0.000  0.000
 1989 287   103   159      1     62    245     2    74   125  0.488  0.510  0.492  0.380  0.393  0.418  0.410  0.397  0.000  0.000
 1989 288   104   154      1     62    245     2    74   125  0.466  0.496  0.485  0.377  0.389  0.417  0.410  0.397  0.000  0.000
 1989 289   105   149      1     62    245     2    74   125  0.442  0.482  0.476  0.374  0.385  0.416  0.410  0.397  0.000  0.000
 1989 290   106   146      1     62    245     2    74   125  0.437  0.471  0.471  0.373  0.383  0.415  0.410  0.397  0.000  0.000
 1989 291   107   142      1     62    245     2    74   125  0.419  0.461  0.463  0.371  0.380  0.414  0.410  0.397  0.000  0.000
 1989 292   108   136      1     62    245     2    74   125  0.400  0.447  0.453  0.368  0.376  0.413  0.410  0.397  0.000  0.000
 1989 293   109   131      1     62    245     2    74   125  0.382  0.434  0.441  0.365  0.373  0.411  0.410  0.397  0.000  0.000
 1989 294   110   158      1     62    245     3   105   125  0.559  0.559  0.489  0.363  0.370  0.409  0.410  0.397  0.000  0.000
 1989 295   111   153      1     62    245     3   105   125  0.521  0.533  0.490  0.362  0.368  0.407  0.410  0.397  0.000  0.000
 1989 296   112   147      1     62    245     3   105   125  0.502  0.511  0.480  0.361  0.365  0.404  0.409  0.397  0.000  0.000
 1989 297   113   145      1     62    245     3   105   125  0.499  0.501  0.478  0.361  0.365  0.403  0.409  0.397  0.000  0.000
 1989 298   114   190      1     62    292     3   105   125  0.560  0.561  0.564  0.470  0.412  0.402  0.409  0.397  0.000  0.000
 1989 299   115   216      2     64    325     3   105   125  0.553  0.562  0.562  0.464  0.456  0.446  0.439  0.414  0.000  0.000
 1989 300   116   199      2     76    325     3   105   125  0.530  0.548  0.548  0.446  0.439  0.433  0.427  0.406  0.000  0.000
 1989 301   117   188      2     81    325     3   105   125  0.521  0.535  0.540  0.436  0.428  0.425  0.419  0.402  0.000  0.000
 1989 302   118   180      2     83    325     3   105   125  0.512  0.525  0.531  0.428  0.420  0.419  0.415  0.399  0.000  0.000
 1989 303   119   177      2     84    325     3   105   125  0.514  0.521  0.527  0.425  0.417  0.417  0.412  0.397  0.000  0.000
 1989 304   120   172      2     84    325     3   105   125  0.503  0.515  0.520  0.419  0.412  0.414  0.410  0.397  0.000  0.000
 1989 305   121   166      2     84    325     3   105   125  0.494  0.507  0.513  0.413  0.406  0.409  0.410  0.397  0.000  0.000
 1989 306   122   165      2     84    325     3   105   125  0.495  0.504  0.510  0.412  0.404  0.407  0.410  0.397  0.000  0.000
 1989 307   123   204      2     85    367     3   105   125  0.565  0.565  0.564  0.467  0.458  0.422  0.413  0.398  0.000  0.000
 1989 308   124   191      2     91    367     3   105   125  0.539  0.549  0.549  0.449  0.441  0.416  0.411  0.397  0.000  0.000
 1989 309   125   184      2     92    367     3   105   125  0.526  0.539  0.540  0.439  0.431  0.413  0.410  0.397  0.000  0.000
 1989 310   126   178      2     92    367     3   105   125  0.521  0.530  0.534  0.433  0.425  0.407  0.409  0.397  0.000  0.000
 1989 311   127   175      2     92    367     3   105   125  0.520  0.526  0.530  0.430  0.422  0.405  0.407  0.397  0.000  0.000
 1989 312   128   169      2     92    367     3   105   125  0.510  0.520  0.524  0.424  0.417  0.399  0.405  0.397  0.000  0.000
 1989 313   129   163      2     92    367     3   105   125  0.500  0.512  0.517  0.418  0.410  0.394  0.402  0.397  0.000  0.000
 1989 314   130   157      2     92    367     3   105   125  0.493  0.505  0.510  0.413  0.405  0.389  0.398  0.397  0.000  0.000
 1989 315   131   155      2     92    367     3   105   125  0.494  0.501  0.507  0.411  0.403  0.388  0.397  0.397  0.000  0.000
 1989 316   132   191      2     92    404     3   105   125  0.567  0.566  0.565  0.468  0.448  0.393  0.396  0.396  0.000  0.000
 1989 317   133   204      2     92    422     3   105   125  0.557  0.563  0.563  0.465  0.455  0.429  0.407  0.397  0.000  0.000
 1989 318   134   191      2     99    422     3   105   125  0.537  0.550  0.550  0.449  0.440  0.420  0.403  0.397  0.000  0.000
 1989 319   135   183      2    100    422     3   105   125  0.527  0.540  0.542  0.439  0.432  0.414  0.402  0.397  0.000  0.000
 1989 320   136   177      2    100    422     3   105   125  0.525  0.532  0.536  0.434  0.426  0.408  0.397  0.397  0.000  0.000
 1989 321   137   171      2    100    422     3   105   125  0.516  0.525  0.530  0.429  0.421  0.403  0.392  0.397  0.000  0.000
 1989 322   138   165      2    100    422     3   105   125  0.508  0.518  0.523  0.423  0.415  0.398  0.387  0.397  0.000  0.000
 1989 323   139   160      2    100    422     3   105   125  0.502  0.512  0.517  0.418  0.411  0.393  0.383  0.396  0.000  0.000
 1989 324   140   155      2    100    422     3   105   125  0.497  0.507  0.512  0.414  0.406  0.390  0.379  0.396  0.000  0.000
 1989 325   141   149      2    100    422     3   105   125  0.488  0.500  0.506  0.409  0.401  0.386  0.376  0.395  0.000  0.000
 1989 326   142   143      2    100    422     3   105   125  0.477  0.492  0.498  0.402  0.394  0.382  0.372  0.394  0.000  0.000
 1989 327   143   154      2    100    438     3   105   125  0.558  0.560  0.519  0.396  0.388  0.379  0.370  0.393  0.000  0.000
 1989 328   144   155      2    100    445     3   105   125  0.551  0.555  0.547  0.398  0.383  0.375  0.367  0.392  0.000  0.000
 1989 329   145   150      2    100    445     3   105   125  0.533  0.543  0.536  0.401  0.380  0.373  0.365  0.390  0.000  0.000
 1989 330   146   145      2    100    445     3   105   125  0.527  0.533  0.527  0.397  0.377  0.371  0.363  0.388  0.000  0.000
 1989 331   147   139      2    100    445     3   105   125  0.517  0.523  0.519  0.392  0.374  0.369  0.361  0.386  0.000  0.000
 1989 332   148   133      2    100    445     3   105   125  0.503  0.512  0.509  0.385  0.372  0.367  0.359  0.382  0.000  0.000
 1989 333   149   128      2    100    445     3   105   125  0.494  0.503  0.501  0.382  0.370  0.365  0.358  0.379  0.000  0.000
 1989 334   150   122      2    100    445     3   105   125  0.479  0.491  0.490  0.377  0.367  0.363  0.356  0.375  0.000  0.000
 1989 335   151   115      2    100    445     3   105   125  0.463  0.479  0.479  0.373  0.364  0.361  0.354  0.370  0.000  0.000
 1989 336   152   111      2    100    445     3   105   125  0.454  0.469  0.470  0.371  0.363  0.359  0.353  0.367  0.000  0.000
 1989 337   153   130      2    100    468     3   105   125  0.559  0.559  0.512  0.369  0.361  0.358  0.352  0.365  0.000  0.000
 1989 338   154   128      2    100    473     3   105   125  0.546  0.550  0.524  0.367  0.359  0.356  0.350  0.361  0.000  0.000
 1989 339   155   122      2    100    473     3   105   125  0.524  0.531  0.515  0.367  0.357  0.355  0.348  0.358  0.000  0.000
 1989 340   156   117      2    100    473     3   105   125  0.512  0.516  0.505  0.366  0.356  0.353  0.347  0.355  0.000  0.000
 1989 341   157   111      2    100    473     3   105   125  0.493  0.501  0.492  0.365  0.354  0.352  0.345  0.353  0.000  0.000
 1989 342   158   104      2    100    473     3   105   125  0.472  0.485  0.478  0.362  0.352  0.350  0.343  0.350  0.000  0.000
 1989 343   159   100      2    100    473     3   105   125  0.461  0.473  0.468  0.361  0.351  0.349  0.342  0.348  0.000  0.000
 1989 344   160    93      2    100    473     3   105   125  0.437  0.456  0.452  0.358  0.349  0.347  0.341  0.346  0.000  0.000
 1989 345   161    86      2    100    473     3   105   125  0.415  0.439  0.437  0.356  0.348  0.346  0.339  0.344  0.000  0.000
 1989 346   162   109      2    100    473     4   135   125  0.552  0.548  0.482  0.353  0.346  0.344  0.337  0.342  0.000  0.000
 1989 347   163   102      2    100    473     4   135   125  0.519  0.520  0.474  0.352  0.344  0.343  0.336  0.340  0.000  0.000
 1989 348   164    94      2    100    473     4   135   125  0.489  0.497  0.460  0.350  0.343  0.342  0.335  0.338  0.000  0.000
 1989 349   165    87      2    100    473     4   135   125  0.461  0.475  0.444  0.349  0.342  0.340  0.333  0.336  0.000  0.000
 1989 350   166    81      2    100    473     4   135   125  0.437  0.457  0.430  0.347  0.340  0.339  0.332  0.335  0.000  0.000
 1989 351   167   142      2    100    538     4   135   125  0.554  0.554  0.561  0.469  0.395  0.338  0.332  0.334  0.000  0.000
 1989 352   168   136      2    100    538     4   135   125  0.526  0.540  0.545  0.446  0.412  0.338  0.331  0.333  0.000  0.000
 1989 353   169   129      2    100    538     4   135   125  0.513  0.527  0.534  0.433  0.406  0.338  0.330  0.332  0.000  0.000
 1989 354   170   122      2    100    538     4   135   125  0.496  0.515  0.523  0.422  0.397  0.337  0.330  0.332  0.000  0.000
 1989 355   171   115      2    100    538     4   135   125  0.480  0.503  0.512  0.413  0.388  0.337  0.329  0.331  0.000  0.000
 1989 356   172   108      2    100    538     4   135   125  0.461  0.490  0.500  0.402  0.381  0.337  0.329  0.330  0.000  0.000
 1989 357   173   101      2    100    538     4   135   125  0.440  0.477  0.488  0.391  0.376  0.336  0.328  0.330  0.000  0.000
 1989 358   174    94      2    100    538     4   135   125  0.422  0.463  0.476  0.381  0.371  0.336  0.328  0.329  0.000  0.000
 1989 359   175    92      2    100    538     4   135   125  0.420  0.456  0.470  0.379  0.370  0.335  0.328  0.328  0.000  0.000
 1989 360   176    87      2    100    538     4   135   125  0.406  0.445  0.459  0.374  0.367  0.335  0.327  0.328  0.000  0.000
 1989 361   177    83      2    100    538     4   135   125  0.396  0.435  0.451  0.371  0.365  0.335  0.327  0.327  0.000  0.000
 1989 362   178   107      2    100    538     5   164   125  0.550  0.556  0.488  0.366  0.362  0.334  0.326  0.327  0.000  0.000
 1989 363   179   103      2    100    538     5   164   125  0.522  0.533  0.489  0.365  0.360  0.334  0.326  0.326  0.000  0.000
 1989 364   180    98      2    100    538     5   164   125  0.500  0.513  0.482  0.364  0.358  0.333  0.325  0.326  0.000  0.000
 1989 365   181    92      2    100    538     5   164   125  0.470  0.495  0.472  0.362  0.356  0.333  0.325  0.325  0.000  0.000
 1990 001   182    86      2    100    538     5   164   125  0.436  0.476  0.459  0.360  0.354  0.332  0.324  0.324  0.000  0.000
 1990 002   183    79      2    100    538     5   164   125  0.412  0.457  0.446  0.358  0.352  0.332  0.324  0.324  0.000  0.000
 1990 003   184    72      2    100    538     5   164   125  0.378  0.437  0.430  0.355  0.350  0.331  0.323  0.323  0.000  0.000
 1990 004   185    97      2    100    538     6   197   125  0.534  0.545  0.481  0.351  0.347  0.330  0.322  0.322  0.000  0.000

*DSSAT Cropping System Model Ver. 4.0.2.000               Aug 03, 2016; 14:38:57

*RUN   4        : UYMZ                    
 MODEL          : MZCER040 - Maize           
 EXPERIMENT     : UYMZ0123 MZ    late to create DSS                             
 TREATMENT  1   : UYMZ                    

@YEAR DOY   DAS  SWXD   ROFC   DRNC   PREC  IR#C  IRRC  DTWT   SW1D   SW2D   SW3D   SW4D   SW5D   SW6D   SW7D   SW8D   SW9D   SW10
 1990 184     0   117      0      0      0     0     0   125  0.378  0.394  0.394  0.335  0.375  0.419  0.408  0.395  0.000  0.000
 1990 185     1   116      0      0      0     0     0   125  0.359  0.393  0.394  0.335  0.376  0.418  0.408  0.395  0.000  0.000
 1990 186     2   115      0      0      0     0     0   125  0.345  0.393  0.394  0.336  0.376  0.418  0.408  0.395  0.000  0.000
 1990 187     3   156      0      0      0     1    42   125  0.546  0.567  0.480  0.336  0.377  0.417  0.408  0.395  0.000  0.000
 1990 188     4   155      0      0      0     1    42   125  0.528  0.547  0.492  0.338  0.377  0.417  0.408  0.395  0.000  0.000
 1990 189     5   154      0      0      0     1    42   125  0.521  0.530  0.497  0.341  0.378  0.416  0.408  0.395  0.000  0.000
 1990 190     6   156      0      0      3     1    42   125  0.546  0.529  0.498  0.344  0.378  0.416  0.408  0.395  0.000  0.000
 1990 191     7   154      0      0      3     1    42   125  0.503  0.529  0.500  0.347  0.378  0.415  0.408  0.395  0.000  0.000
 1990 192     8   151      0      0      3     1    42   125  0.464  0.517  0.500  0.349  0.379  0.415  0.408  0.395  0.000  0.000
 1990 193     9   149      0      0      3     1    42   125  0.453  0.504  0.498  0.352  0.379  0.415  0.408  0.395  0.000  0.000
 1990 194    10   147      0      0      3     1    42   125  0.426  0.495  0.496  0.354  0.380  0.414  0.408  0.395  0.000  0.000
 1990 195    11   146      0      0      3     1    42   125  0.418  0.486  0.493  0.356  0.380  0.414  0.407  0.395  0.000  0.000
 1990 196    12   145      0      0      3     1    42   125  0.414  0.480  0.490  0.358  0.380  0.414  0.407  0.395  0.000  0.000
 1990 197    13   151      0      0     11     1    42   125  0.550  0.480  0.488  0.360  0.381  0.413  0.407  0.395  0.000  0.000
 1990 198    14   150      0      0     11     1    42   125  0.493  0.495  0.487  0.362  0.381  0.413  0.407  0.395  0.000  0.000
 1990 199    15   155      0      0     18     1    42   125  0.526  0.526  0.486  0.364  0.382  0.413  0.407  0.395  0.000  0.000
 1990 200    16   153      0      0     18     1    42   125  0.485  0.520  0.488  0.365  0.382  0.412  0.407  0.395  0.000  0.000
 1990 201    17   151      0      0     18     1    42   125  0.466  0.508  0.489  0.367  0.382  0.412  0.407  0.395  0.000  0.000
 1990 202    18   149      0      0     18     1    42   125  0.452  0.498  0.489  0.369  0.383  0.412  0.407  0.395  0.000  0.000
 1990 203    19   147      0      0     18     1    42   125  0.428  0.490  0.487  0.370  0.383  0.412  0.407  0.395  0.000  0.000
 1990 204    20   146      0      0     18     1    42   125  0.417  0.482  0.486  0.372  0.384  0.411  0.407  0.395  0.000  0.000
 1990 205    21   145      0      0     18     1    42   125  0.410  0.476  0.484  0.373  0.384  0.411  0.407  0.395  0.000  0.000
 1990 206    22   144      0      0     18     1    42   125  0.405  0.470  0.482  0.374  0.384  0.411  0.407  0.395  0.000  0.000
 1990 207    23   143      0      0     18     1    42   125  0.401  0.466  0.480  0.375  0.385  0.410  0.407  0.395  0.000  0.000
 1990 208    24   142      0      0     18     1    42   125  0.397  0.462  0.478  0.376  0.385  0.410  0.406  0.395  0.000  0.000
 1990 209    25   142      0      0     18     1    42   125  0.394  0.458  0.477  0.377  0.385  0.410  0.406  0.395  0.000  0.000
 1990 210    26   141      0      0     18     1    42   125  0.391  0.455  0.475  0.378  0.386  0.410  0.406  0.395  0.000  0.000
 1990 211    27   140      0      0     18     1    42   125  0.388  0.452  0.473  0.378  0.386  0.410  0.406  0.395  0.000  0.000
 1990 212    28   140      0      0     18     1    42   125  0.386  0.450  0.472  0.379  0.387  0.409  0.406  0.395  0.000  0.000
 1990 213    29   139      0      0     18     1    42   125  0.384  0.447  0.470  0.380  0.387  0.409  0.406  0.394  0.000  0.000
[...]
 1992 230    46   169      0      0     61     1    43   125  0.470  0.491  0.506  0.423  0.425  0.418  0.407  0.395  0.000  0.000
 1992 231    47   168      0      0     61     1    43   125  0.469  0.490  0.505  0.423  0.425  0.417  0.407  0.395  0.000  0.000
 1992 232    48   168      0      0     61     1    43   125  0.468  0.489  0.504  0.422  0.425  0.417  0.407  0.395  0.000  0.000
 1992 233    49   167      0      0     61     1    43   125  0.467  0.488  0.504  0.422  0.425  0.417  0.407  0.395  0.000  0.000
 1992 234    50   167      0      0     61     1    43   125  0.466  0.486  0.503  0.421  0.424  0.417  0.407  0.394  0.000  0.000
 1992 235    51   167      0      0     62     1    43   125  0.478  0.485  0.502  0.421  0.424  0.417  0.407  0.394  0.000  0.000
 1992 236    52   169      0      0     68     1    43   125  0.498  0.500  0.501  0.421  0.424  0.417  0.407  0.394  0.000  0.000
 1992 237    53   169      0      0     68     1    43   125  0.489  0.499  0.501  0.420  0.423  0.417  0.407  0.394  0.000  0.000
 1992 238    54   168      0      0     68     1    43   125  0.483  0.496  0.501  0.420  0.423  0.417  0.407  0.394  0.000  0.000
 1992 239    55   167      0      0     68     1    43   125  0.479  0.494  0.501  0.420  0.423  0.417  0.407  0.394  0.000  0.000
 1992 240    56   167      0      0     68     1    43   125  0.475  0.491  0.500  0.419  0.423  0.417  0.407  0.394  0.000  0.000
 1992 241    57   166      0      0     68     1    43   125  0.472  0.489  0.500  0.419  0.422  0.417  0.407  0.394  0.000  0.000
 1992 242    58   166      0      0     68     1    43   125  0.469  0.487  0.499  0.419  0.422  0.417  0.407  0.394  0.000  0.000
 1992 243    59   165      0      0     68     1    43   125  0.467  0.485  0.498  0.418  0.422  0.417  0.407  0.394  0.000  0.000
 1992 244    60   170      0      0     74     1    43   125  0.547  0.493  0.497  0.418  0.422  0.417  0.407  0.394  0.000  0.000
 1992 245    61   169      0      0     74     1    43   125  0.507  0.505  0.498  0.418  0.421  0.417  0.407  0.394  0.000  0.000
 1992 246    62   168      0      0     74     1    43   125  0.496  0.504  0.499  0.417  0.421  0.417  0.407  0.394  0.000  0.000
 1992 247    63   167      0      0     74     1    43   125  0.488  0.500  0.499  0.417  0.421  0.417  0.407  0.394  0.000  0.000
 1992 248    64   166      0      0     74     1    43   125  0.482  0.496  0.498  0.417  0.421  0.416  0.407  0.394  0.000  0.000
 1992 249    65   165      0      0     74     1    43   125  0.476  0.492  0.497  0.417  0.421  0.416  0.407  0.394  0.000  0.000
 1992 250    66   164      0      0     74     1    43   125  0.471  0.488  0.495  0.416  0.420  0.416  0.407  0.394  0.000  0.000
 1992 251    67   163      0      0     74     1    43   125  0.466  0.484  0.493  0.416  0.420  0.416  0.407  0.394  0.000  0.000
 1992 252    68   163      0      0     74     1    43   125  0.462  0.481  0.492  0.416  0.420  0.416  0.407  0.394  0.000  0.000
 1992 253    69   162      0      0     74     1    43   125  0.458  0.478  0.491  0.415  0.420  0.416  0.407  0.394  0.000  0.000
 1992 254    70   161      0      0     74     1    43   125  0.454  0.475  0.489  0.415  0.419  0.416  0.407  0.394  0.000  0.000
 1992 255    71   163      0      0     78     1    43   125  0.508  0.472  0.487  0.414  0.419  0.416  0.407  0.394  0.000  0.000
 1992 256    72   162      0      0     80     1    43   125  0.497  0.476  0.485  0.414  0.419  0.416  0.407  0.394  0.000  0.000
 1992 257    73   161      0      0     80     1    43   125  0.479  0.479  0.484  0.413  0.419  0.416  0.407  0.394  0.000  0.000
 1992 258    74   160      0      0     80     1    43   125  0.466  0.476  0.481  0.413  0.419  0.416  0.407  0.394  0.000  0.000
 1992 259    75   158      0      0     80     1    43   125  0.456  0.471  0.478  0.412  0.418  0.416  0.407  0.394  0.000  0.000
 1992 260    76   157      0      0     80     1    43   125  0.449  0.467  0.476  0.411  0.418  0.416  0.407  0.394  0.000  0.000
 1992 261    77   155      0      0     80     1    43   125  0.441  0.462  0.473  0.410  0.418  0.415  0.407  0.394  0.000  0.000
 1992 262    78   155      0      0     84     1    43   125  0.470  0.456  0.469  0.409  0.418  0.415  0.407  0.394  0.000  0.000
 1992 263    79   153      0      0     84     1    43   125  0.453  0.453  0.464  0.407  0.417  0.415  0.407  0.394  0.000  0.000
 1992 264    80   151      0      0     84     1    43   125  0.439  0.448  0.459  0.406  0.417  0.415  0.407  0.394  0.000  0.000
 1992 265    81   148      0      0     84     1    43   125  0.426  0.442  0.454  0.404  0.417  0.415  0.407  0.394  0.000  0.000
 1992 266    82   159      0      0     96     1    43   125  0.556  0.489  0.452  0.403  0.416  0.415  0.407  0.394  0.000  0.000
 1992 267    83   166      0      0    106     1    43   125  0.502  0.571  0.462  0.401  0.416  0.415  0.407  0.394  0.000  0.000
 1992 268    84   165      0      0    106     1    43   125  0.518  0.532  0.476  0.401  0.415  0.415  0.407  0.394  0.000  0.000
 1992 269    85   178      0      0    123     1    43   125  0.535  0.551  0.546  0.402  0.415  0.415  0.406  0.394  0.000  0.000
 1992 270    86   174      0      0    123     1    43   125  0.500  0.539  0.536  0.408  0.415  0.415  0.406  0.394  0.000  0.000
 1992 271    87   170      0      0    123     1    43   125  0.474  0.523  0.528  0.408  0.414  0.415  0.406  0.394  0.000  0.000
 1992 272    88   165      0      0    123     1    43   125  0.438  0.508  0.519  0.408  0.414  0.414  0.406  0.394  0.000  0.000
 1992 273    89   162      0      0    123     1    43   125  0.426  0.494  0.510  0.407  0.414  0.414  0.406  0.394  0.000  0.000
 1992 274    90   159      0      0    123     1    43   125  0.419  0.482  0.501  0.405  0.413  0.414  0.406  0.394  0.000  0.000
 1992 275    91   156      0      0    123     1    43   125  0.413  0.474  0.495  0.403  0.413  0.414  0.406  0.394  0.000  0.000
 1992 276    92   156      0      0    125     1    43   125  0.439  0.467  0.490  0.402  0.412  0.414  0.406  0.394  0.000  0.000
 1992 277    93   153      0      0    125     1    43   125  0.422  0.462  0.483  0.399  0.412  0.414  0.406  0.394  0.000  0.000
 1992 278    94   150      0      0    125     1    43   125  0.410  0.454  0.476  0.396  0.411  0.414  0.406  0.394  0.000  0.000
 1992 279    95   148      0      0    125     1    43   125  0.404  0.450  0.473  0.395  0.410  0.414  0.406  0.394  0.000  0.000
 1992 280    96   156      0      0    137     1    43   125  0.537  0.480  0.465  0.391  0.409  0.414  0.406  0.394  0.000  0.000
 1992 281    97   152      0      0    137     1    43   125  0.475  0.485  0.461  0.388  0.407  0.413  0.406  0.394  0.000  0.000
 1992 282    98   148      0      0    137     1    43   125  0.448  0.475  0.456  0.385  0.406  0.413  0.406  0.394  0.000  0.000
 1992 283    99   143      0      0    137     1    43   125  0.409  0.463  0.450  0.382  0.404  0.413  0.406  0.394  0.000  0.000
 1992 284   100   138      0      0    137     1    43   125  0.383  0.449  0.442  0.378  0.401  0.413  0.406  0.394  0.000  0.000
 1992 285   101   164      0      0    137     2    72   125  0.549  0.557  0.494  0.375  0.399  0.413  0.406  0.394  0.000  0.000
 1992 286   102   159      0      0    137     2    72   125  0.504  0.535  0.495  0.374  0.396  0.413  0.406  0.394  0.000  0.000
 1992 287   103   154      0      0    137     2    72   125  0.483  0.511  0.488  0.373  0.393  0.412  0.406  0.394  0.000  0.000
 1992 288   104   149      0      0    137     2    72   125  0.457  0.493  0.479  0.370  0.389  0.412  0.406  0.394  0.000  0.000
 1992 289   105   147      0      0    137     2    72   125  0.455  0.483  0.476  0.371  0.388  0.412  0.406  0.394  0.000  0.000
 1992 290   106   175      0      0    167     2    72   125  0.562  0.560  0.563  0.387  0.387  0.411  0.406  0.394  0.000  0.000
 1992 291   107   170      0      0    167     2    72   125  0.522  0.545  0.543  0.400  0.386  0.411  0.406  0.394  0.000  0.000
 1992 292   108   165      0      0    167     2    72   125  0.508  0.529  0.531  0.396  0.384  0.411  0.405  0.394  0.000  0.000
 1992 293   109   163      0      0    167     2    72   125  0.512  0.521  0.525  0.396  0.384  0.410  0.405  0.394  0.000  0.000
 1992 294   110   173      0      0    181     2    72   125  0.547  0.559  0.550  0.402  0.382  0.410  0.405  0.394  0.000  0.000
 1992 295   111   168      0      0    181     2    72   125  0.516  0.544  0.536  0.405  0.381  0.409  0.405  0.394  0.000  0.000
 1992 296   112   163      0      0    181     2    72   125  0.510  0.526  0.525  0.399  0.379  0.409  0.405  0.394  0.000  0.000
 1992 297   113   158      0      0    181     2    72   125  0.492  0.513  0.514  0.392  0.377  0.408  0.405  0.393  0.000  0.000
 1992 298   114   152      0      0    181     2    72   125  0.474  0.500  0.503  0.384  0.375  0.407  0.405  0.393  0.000  0.000
 1992 299   115   150      0      0    181     2    72   125  0.473  0.492  0.497  0.383  0.374  0.406  0.405  0.393  0.000  0.000
 1992 300   116   144      0      0    181     2    72   125  0.454  0.479  0.484  0.377  0.372  0.405  0.405  0.393  0.000  0.000
 1992 301   117   138      0      0    181     2    72   125  0.431  0.464  0.471  0.372  0.369  0.404  0.405  0.393  0.000  0.000
 1992 302   118   137      0      0    183     2    72   125  0.460  0.457  0.466  0.371  0.368  0.403  0.404  0.393  0.000  0.000
 1992 303   119   133      0      0    184     2    72   125  0.456  0.447  0.454  0.367  0.366  0.402  0.404  0.393  0.000  0.000
 1992 304   120   128      0      0    184     2    72   125  0.432  0.438  0.443  0.364  0.364  0.400  0.404  0.393  0.000  0.000
 1992 305   121   122      0      0    184     2    72   125  0.412  0.426  0.431  0.361  0.362  0.398  0.404  0.393  0.000  0.000
 1992 306   122   149      0      0    184     3   104   125  0.552  0.557  0.484  0.357  0.359  0.395  0.404  0.393  0.000  0.000
 1992 307   123   142      0      0    184     3   104   125  0.523  0.528  0.481  0.356  0.357  0.393  0.404  0.393  0.000  0.000
 1992 308   124   155      0      0    201     3   104   125  0.555  0.550  0.543  0.361  0.356  0.391  0.403  0.393  0.000  0.000
 1992 309   125   151      0      0    201     3   104   125  0.532  0.537  0.528  0.367  0.355  0.389  0.403  0.393  0.000  0.000
 1992 310   126   147      0      0    201     3   104   125  0.520  0.524  0.517  0.367  0.354  0.387  0.403  0.393  0.000  0.000
 1992 311   127   142      0      0    201     3   104   125  0.502  0.511  0.505  0.367  0.353  0.385  0.403  0.393  0.000  0.000
 1992 312   128   136      0      0    201     3   104   125  0.484  0.497  0.492  0.365  0.352  0.382  0.402  0.393  0.000  0.000
 1992 313   129   131      0      0    201     3   104   125  0.465  0.482  0.479  0.363  0.351  0.380  0.402  0.393  0.000  0.000
 1992 314   130   124      0      0    201     3   104   125  0.444  0.466  0.465  0.361  0.350  0.377  0.401  0.392  0.000  0.000
 1992 315   131   123      0      0    201     3   104   125  0.442  0.460  0.460  0.360  0.350  0.376  0.401  0.392  0.000  0.000
 1992 316   132   121      0      0    205     3   104   125  0.504  0.447  0.449  0.358  0.349  0.374  0.399  0.392  0.000  0.000
 1992 317   133   115      0      0    205     3   104   125  0.464  0.441  0.435  0.356  0.348  0.372  0.397  0.392  0.000  0.000
 1992 318   134   109      0      0    205     3   104   125  0.435  0.429  0.424  0.354  0.347  0.370  0.393  0.392  0.000  0.000
 1992 319   135   136      0      0    205     4   136   125  0.549  0.560  0.491  0.352  0.346  0.368  0.388  0.392  0.000  0.000
 1992 320   136   157      0      0    232     4   136   125  0.549  0.549  0.561  0.441  0.347  0.366  0.385  0.391  0.000  0.000
 1992 321   137   152      0      0    232     4   136   125  0.528  0.537  0.544  0.429  0.360  0.365  0.381  0.391  0.000  0.000
 1992 322   138   146      0      0    232     4   136   125  0.518  0.527  0.533  0.420  0.360  0.364  0.378  0.391  0.000  0.000
 1992 323   139   141      0      0    232     4   136   125  0.507  0.518  0.522  0.410  0.360  0.363  0.375  0.390  0.000  0.000
 1992 324   140   134      0      0    232     4   136   125  0.494  0.506  0.510  0.400  0.359  0.361  0.371  0.390  0.000  0.000
 1992 325   141   129      0      0    232     4   136   125  0.484  0.496  0.501  0.393  0.358  0.360  0.369  0.389  0.000  0.000
 1992 326   142   127      0      0    232     4   136   125  0.484  0.492  0.496  0.390  0.358  0.360  0.368  0.389  0.000  0.000
 1992 327   143   122      0      0    232     4   136   125  0.471  0.483  0.487  0.383  0.357  0.359  0.366  0.388  0.000  0.000
 1992 328   144   118      0      0    232     4   136   125  0.461  0.474  0.478  0.378  0.357  0.358  0.364  0.387  0.000  0.000
 1992 329   145   113      0      0    232     4   136   125  0.447  0.463  0.468  0.374  0.355  0.356  0.362  0.387  0.000  0.000
 1992 330   146   109      0      0    232     4   136   125  0.435  0.453  0.458  0.370  0.354  0.355  0.361  0.386  0.000  0.000
 1992 331   147   104      0      0    232     4   136   125  0.425  0.443  0.449  0.367  0.353  0.354  0.359  0.386  0.000  0.000
 1992 332   148    98      0      0    232     4   136   125  0.410  0.428  0.435  0.363  0.351  0.352  0.356  0.385  0.000  0.000
 1992 333   149   125      0      0    232     5   167   125  0.559  0.559  0.487  0.360  0.350  0.351  0.354  0.384  0.000  0.000
 1992 334   150   120      0      0    232     5   167   125  0.535  0.533  0.488  0.359  0.349  0.349  0.353  0.383  0.000  0.000
 1992 335   151   149      0      0    266     5   167   125  0.547  0.550  0.560  0.458  0.362  0.348  0.351  0.381  0.000  0.000
 1992 336   152   143      0      0    266     5   167   125  0.527  0.537  0.542  0.437  0.379  0.347  0.350  0.380  0.000  0.000
 1992 337   153   137      0      0    266     5   167   125  0.516  0.526  0.531  0.426  0.376  0.346  0.349  0.378  0.000  0.000
 1992 338   154   131      0      0    266     5   167   125  0.505  0.516  0.521  0.417  0.374  0.346  0.348  0.375  0.000  0.000
 1992 339   155   124      0      0    266     5   167   125  0.490  0.504  0.510  0.406  0.371  0.345  0.347  0.372  0.000  0.000
 1992 340   156   120      0      0    266     5   167   125  0.483  0.496  0.502  0.400  0.369  0.345  0.347  0.370  0.000  0.000
 1992 341   157   144      0      0    296     5   167   125  0.554  0.557  0.557  0.441  0.375  0.344  0.345  0.367  0.000  0.000
 1992 342   158   139      0      0    296     5   167   125  0.533  0.543  0.543  0.431  0.385  0.343  0.345  0.365  0.000  0.000
 1992 343   159   133      0      0    296     5   167   125  0.524  0.532  0.534  0.422  0.381  0.343  0.344  0.363  0.000  0.000
 1992 344   160   129      0      0    296     5   167   125  0.515  0.523  0.525  0.415  0.378  0.342  0.343  0.361  0.000  0.000
 1992 345   161   124      0      0    296     5   167   125  0.504  0.513  0.516  0.407  0.375  0.342  0.342  0.359  0.000  0.000
 1992 346   162   119      0      0    296     5   167   125  0.492  0.504  0.506  0.399  0.373  0.341  0.342  0.357  0.000  0.000
 1992 347   163   112      0      0    296     5   167   125  0.476  0.491  0.495  0.389  0.369  0.341  0.341  0.355  0.000  0.000
 1992 348   164   105      0      0    296     5   167   125  0.458  0.478  0.482  0.379  0.366  0.340  0.340  0.353  0.000  0.000
 1992 349   165    99      0      0    296     5   167   125  0.440  0.463  0.468  0.373  0.363  0.339  0.338  0.351  0.000  0.000
 1992 350   166    92      0      0    296     5   167   125  0.421  0.448  0.454  0.368  0.360  0.339  0.337  0.349  0.000  0.000
 1992 351   167    86      0      0    296     5   167   125  0.410  0.434  0.441  0.364  0.358  0.338  0.336  0.348  0.000  0.000
 1992 352   168   112      0      0    296     6   197   125  0.560  0.558  0.488  0.361  0.356  0.337  0.336  0.346  0.000  0.000
 1992 353   169   105      0      0    296     6   197   125  0.526  0.527  0.484  0.359  0.353  0.336  0.334  0.345  0.000  0.000
 1992 354   170   101      0      0    296     6   197   125  0.510  0.511  0.477  0.359  0.352  0.336  0.334  0.344  0.000  0.000
 1992 355   171    93      0      0    296     6   197   125  0.479  0.489  0.461  0.356  0.350  0.335  0.332  0.342  0.000  0.000
 1992 356   172    87      0      0    296     6   197   125  0.457  0.471  0.448  0.354  0.348  0.334  0.332  0.341  0.000  0.000
 1992 357   173    91      0      0    302     6   197   125  0.555  0.469  0.442  0.354  0.347  0.334  0.331  0.340  0.000  0.000
 1992 358   174    88      0      0    302     6   197   125  0.508  0.478  0.438  0.353  0.347  0.334  0.331  0.339  0.000  0.000
 1992 359   175   113      0      0    333     6   197   125  0.528  0.555  0.542  0.360  0.345  0.333  0.330  0.338  0.000  0.000
 1992 360   176   108      0      0    333     6   197   125  0.518  0.532  0.526  0.365  0.344  0.332  0.329  0.337  0.000  0.000
 1992 361   177   101      0      0    333     6   197   125  0.498  0.511  0.507  0.364  0.343  0.331  0.328  0.336  0.000  0.000
 1992 362   178    94      0      0    333     6   197   125  0.473  0.492  0.490  0.361  0.342  0.331  0.328  0.335  0.000  0.000
 1992 363   179    87      0      0    333     6   197   125  0.448  0.472  0.472  0.359  0.341  0.330  0.327  0.334  0.000  0.000
 1992 364   180    85      0      0    333     6   197   125  0.444  0.465  0.466  0.359  0.340  0.330  0.327  0.333  0.000  0.000
 1992 365   181    88      0      0    338     6   197   125  0.539  0.458  0.461  0.358  0.340  0.330  0.326  0.333  0.000  0.000
 1992 366   182   143      0      0    395     6   197   125  0.529  0.577  0.563  0.469  0.418  0.330  0.326  0.333  0.000  0.000
 1993 001   183   213     17      0    484     6   197   125  0.577  0.581  0.582  0.488  0.458  0.447  0.428  0.346  0.000  0.000
 1993 002   184   216     17      1    490     6   197   125  0.561  0.566  0.566  0.468  0.459  0.446  0.437  0.401  0.000  0.000
 1993 003   185   220     17      4    498     6   197   125  0.560  0.567  0.567  0.469  0.459  0.445  0.437  0.420  0.000  0.000
 1993 004   186   220     17     17    515     6   197   125  0.554  0.566  0.566  0.467  0.458  0.445  0.437  0.429  0.000  0.000
 1993 005   187   201     17     30    515     6   197   125  0.524  0.553  0.553  0.451  0.443  0.431  0.421  0.412  0.000  0.000
 1993 006   188   187     17     36    515     6   197   125  0.507  0.536  0.544  0.441  0.433  0.421  0.410  0.402  0.000  0.000
 1993 007   189   184     17     37    515     6   197   125  0.516  0.528  0.539  0.438  0.431  0.419  0.408  0.398  0.000  0.000
 1993 008   190   205     17     37    541     6   197   125  0.555  0.564  0.562  0.466  0.457  0.428  0.413  0.399  0.000  0.000
 1993 009   191   190     17     45    541     6   197   125  0.516  0.549  0.552  0.449  0.444  0.420  0.405  0.395  0.000  0.000
 1993 010   192   181     17     46    541     6   197   125  0.501  0.531  0.543  0.439  0.435  0.415  0.403  0.392  0.000  0.000
 1993 011   193   174     17     46    541     6   197   125  0.482  0.521  0.535  0.433  0.428  0.410  0.397  0.390  0.000  0.000
 1993 012   194   167     17     46    541     6   197   125  0.472  0.511  0.527  0.428  0.423  0.405  0.393  0.388  0.000  0.000
 1993 013   195   161     17     46    541     6   197   125  0.459  0.503  0.520  0.424  0.419  0.401  0.389  0.386  0.000  0.000
 1993 014   196   157     17     46    541     6   197   125  0.453  0.496  0.515  0.421  0.416  0.399  0.386  0.385  0.000  0.000
 1993 015   197   202     17     46    593     6   197   125  0.547  0.560  0.561  0.465  0.456  0.437  0.407  0.382  0.000  0.000
