*SOIL TEMPERATURE OUTPUT FILE (DAILY)

*DSSAT Cropping System Model Ver. 4.0.2.000               Aug 19, 2016; 14:29:32

*RUN   1        : UYMZ                    
 MODEL          : MZCER040 - Maize           
 EXPERIMENT     : UYMZ0215 MZ    late to create DSS                             
 TREATMENT  1   : UYMZ                    

@YEAR DOY   DAS  TS1D  TS2D  TS3D  TS4D  TS5D  TS6D  TS7D  TS8D  TS9D  TS10
 2000 228     0  13.8  14.1  14.8  15.5  16.1  16.8  17.2  17.4   0.0   0.0
 2000 229     1  14.4  14.7  15.2  15.8  16.3  16.9  17.3  17.4   0.0   0.0
 2000 230     2  15.2  15.3  15.7  16.1  16.6  17.1  17.4  17.5   0.0   0.0
 2000 231     3  16.2  16.2  16.3  16.6  16.9  17.3  17.5  17.6   0.0   0.0
 2000 232     4  18.2  18.0  17.7  17.7  17.7  17.8  17.8  17.8   0.0   0.0
 2000 233     5  18.7  18.4  18.0  17.9  17.9  17.9  17.9  17.9   0.0   0.0
 2000 234     6  19.6  19.2  18.7  18.3  18.2  18.1  18.0  18.0   0.0   0.0
 2000 235     7  20.7  20.0  19.4  18.9  18.6  18.3  18.2  18.1   0.0   0.0
 2000 236     8  21.0  20.3  19.5  19.0  18.7  18.4  18.2  18.1   0.0   0.0
 2000 237     9  19.7  19.2  18.7  18.3  18.2  18.1  18.0  18.0   0.0   0.0
 2000 238    10  19.2  18.8  18.3  18.1  18.0  17.9  17.9  17.9   0.0   0.0
 2000 239    11  18.0  17.7  17.5  17.4  17.5  17.6  17.7  17.7   0.0   0.0
 2000 240    12  16.9  16.7  16.7  16.8  17.0  17.3  17.5  17.6   0.0   0.0
 2000 241    13  15.0  15.1  15.4  15.9  16.3  16.8  17.2  17.4   0.0   0.0
 2000 242    14  14.4  14.6  15.0  15.5  16.0  16.7  17.1  17.3   0.0   0.0
 2000 243    15  15.1  15.2  15.4  15.8  16.3  16.8  17.2  17.4   0.0   0.0
 2000 244    16  14.8  14.9  15.2  15.7  16.2  16.7  17.1  17.3   0.0   0.0
 2000 245    17  14.0  14.2  14.7  15.3  15.8  16.5  17.0  17.2   0.0   0.0
 2000 246    18  14.6  14.7  15.1  15.5  16.0  16.6  17.1  17.3   0.0   0.0
 2000 247    19  14.6  14.7  15.1  15.5  16.0  16.6  17.1  17.3   0.0   0.0
 2000 248    20  14.6  14.7  15.0  15.5  16.0  16.6  17.0  17.3   0.0   0.0
 2000 249    21  15.4  15.4  15.6  15.9  16.3  16.8  17.2  17.3   0.0   0.0
 2000 250    22  16.7  16.5  16.5  16.6  16.8  17.1  17.4  17.5   0.0   0.0
 2000 251    23  18.5  18.1  17.7  17.5  17.5  17.6  17.6  17.7   0.0   0.0
 2000 252    24  20.5  19.8  19.1  18.5  18.2  18.0  18.0  17.9   0.0   0.0
 2000 253    25  20.9  20.2  19.3  18.7  18.4  18.1  18.0  17.9   0.0   0.0
 2000 254    26  21.7  20.8  19.8  19.1  18.6  18.3  18.1  18.0   0.0   0.0
 2000 255    27  21.7  20.9  19.9  19.1  18.6  18.3  18.1  18.0   0.0   0.0
 2000 256    28  19.8  19.2  18.5  18.1  17.9  17.8  17.8  17.8   0.0   0.0
 2000 257    29  16.7  16.5  16.4  16.5  16.7  17.0  17.3  17.4   0.0   0.0
 2000 258    30  14.7  14.8  15.0  15.4  15.9  16.5  16.9  17.2   0.0   0.0
 2000 259    31  13.0  13.3  13.8  14.5  15.2  16.0  16.6  16.9   0.0   0.0
 2000 260    32  12.2  12.6  13.3  14.1  14.8  15.8  16.5  16.8   0.0   0.0
 2000 261    33  12.9  13.2  13.8  14.4  15.1  15.9  16.6  16.9   0.0   0.0
 2000 262    34  14.4  14.5  14.8  15.2  15.7  16.3  16.8  17.1   0.0   0.0
 2000 263    35  16.3  16.2  16.1  16.2  16.4  16.8  17.1  17.3   0.0   0.0
 2000 264    36  17.6  17.3  17.0  16.8  16.9  17.1  17.3  17.4   0.0   0.0
 2000 265    37  17.9  17.5  17.1  17.0  17.0  17.1  17.3  17.4   0.0   0.0
 2000 266    38  18.0  17.6  17.2  17.0  17.0  17.2  17.4  17.5   0.0   0.0
 2000 267    39  18.4  17.9  17.5  17.2  17.2  17.3  17.4  17.5   0.0   0.0
 2000 268    40  17.0  16.7  16.5  16.5  16.6  16.9  17.2  17.3   0.0   0.0
 2000 269    41  15.6  15.5  15.6  15.8  16.1  16.5  16.9  17.2   0.0   0.0
 2000 270    42  15.2  15.2  15.3  15.6  15.9  16.4  16.9  17.1   0.0   0.0
 2000 271    43  16.0  15.9  15.8  15.9  16.2  16.6  17.0  17.2   0.0   0.0
 2000 272    44  17.0  16.8  16.5  16.5  16.6  16.8  17.1  17.3   0.0   0.0
 2000 273    45  19.4  18.8  18.1  17.7  17.5  17.4  17.5  17.5   0.0   0.0
 2000 274    46  21.6  20.7  19.6  18.8  18.3  18.0  17.8  17.8   0.0   0.0
 2000 275    47  23.3  22.2  20.8  19.6  19.0  18.4  18.1  18.0   0.0   0.0
 2000 276    48  22.6  21.6  20.3  19.3  18.7  18.2  18.0  17.9   0.0   0.0
 2000 277    49  21.5  20.7  19.6  18.7  18.3  17.9  17.8  17.8   0.0   0.0
 2000 278    50  20.2  19.5  18.6  18.0  17.7  17.6  17.6  17.6   0.0   0.0
 2000 279    51  18.9  18.4  17.8  17.4  17.2  17.2  17.3  17.4   0.0   0.0
 2000 280    52  17.9  17.5  17.0  16.8  16.8  16.9  17.2  17.3   0.0   0.0
 2000 281    53  18.2  17.8  17.3  17.0  16.9  17.0  17.2  17.3   0.0   0.0
 2000 282    54  18.7  18.2  17.6  17.2  17.1  17.1  17.3  17.4   0.0   0.0
 2000 283    55  18.6  18.1  17.5  17.2  17.0  17.1  17.2  17.4   0.0   0.0
 2000 284    56  18.6  18.1  17.5  17.1  17.0  17.1  17.2  17.3   0.0   0.0
 2000 285    57  19.1  18.5  17.8  17.4  17.2  17.2  17.3  17.4   0.0   0.0
 2000 286    58  20.1  19.4  18.5  17.9  17.6  17.4  17.5  17.5   0.0   0.0
 2000 287    59  20.1  19.3  18.5  17.9  17.6  17.4  17.4  17.5   0.0   0.0
 2000 288    60  20.3  19.6  18.7  18.0  17.7  17.5  17.5  17.5   0.0   0.0
 2000 289    61  20.4  19.7  18.7  18.0  17.7  17.5  17.5  17.5   0.0   0.0
 2000 290    62  20.6  19.8  18.9  18.1  17.7  17.5  17.5  17.5   0.0   0.0
 2000 291    63  19.7  19.0  18.2  17.7  17.4  17.3  17.3  17.4   0.0   0.0
 2000 292    64  19.7  19.1  18.3  17.7  17.4  17.3  17.3  17.4   0.0   0.0
 2000 293    65  19.9  19.2  18.4  17.8  17.5  17.3  17.4  17.4   0.0   0.0
 2000 294    66  20.9  20.1  19.1  18.3  17.8  17.6  17.5  17.5   0.0   0.0
 2000 295    67  21.8  20.9  19.7  18.8  18.2  17.8  17.6  17.6   0.0   0.0
 2000 296    68  21.6  20.7  19.5  18.6  18.1  17.7  17.6  17.6   0.0   0.0
 2000 297    69  20.9  20.1  19.0  18.2  17.8  17.5  17.5  17.5   0.0   0.0
 2000 298    70  21.0  20.1  19.1  18.3  17.8  17.5  17.5  17.5   0.0   0.0
 2000 299    71  20.5  19.7  18.8  18.0  17.6  17.4  17.4  17.4   0.0   0.0
 2000 300    72  19.9  19.2  18.3  17.7  17.4  17.2  17.3  17.3   0.0   0.0
 2000 301    73  20.7  19.9  18.9  18.2  17.7  17.4  17.4  17.4   0.0   0.0
 2000 302    74  21.1  20.3  19.2  18.4  17.9  17.5  17.5  17.5   0.0   0.0
 2000 303    75  20.8  19.9  18.9  18.2  17.7  17.4  17.4  17.4   0.0   0.0
 2000 304    76  21.7  20.7  19.6  18.6  18.1  17.6  17.5  17.5   0.0   0.0
 2000 305    77  22.3  21.3  20.0  18.9  18.3  17.8  17.6  17.6   0.0   0.0
 2000 306    78  22.0  21.0  19.8  18.8  18.2  17.7  17.6  17.5   0.0   0.0
 2000 307    79  22.3  21.3  20.0  18.9  18.3  17.8  17.6  17.6   0.0   0.0
 2000 308    80  23.3  22.1  20.7  19.4  18.7  18.0  17.8  17.7   0.0   0.0
 2000 309    81  22.3  21.3  20.0  19.0  18.3  17.8  17.6  17.6   0.0   0.0
 2000 310    82  21.8  20.9  19.7  18.7  18.1  17.6  17.5  17.5   0.0   0.0
 2000 311    83  22.1  21.2  19.9  18.8  18.2  17.7  17.5  17.5   0.0   0.0
 2000 312    84  22.2  21.2  19.9  18.9  18.2  17.7  17.5  17.5   0.0   0.0
 2000 313    85  22.4  21.4  20.0  19.0  18.3  17.8  17.6  17.5   0.0   0.0
 2000 314    86  22.2  21.2  19.9  18.9  18.2  17.7  17.5  17.5   0.0   0.0
 2000 315    87  22.1  21.1  19.9  18.8  18.2  17.7  17.5  17.5   0.0   0.0
 2000 316    88  22.2  21.2  19.9  18.8  18.2  17.7  17.5  17.5   0.0   0.0
 2000 317    89  22.7  21.7  20.3  19.1  18.4  17.8  17.6  17.5   0.0   0.0
 2000 318    90  22.2  21.2  19.9  18.9  18.2  17.7  17.5  17.5   0.0   0.0
 2000 319    91  21.4  20.6  19.4  18.5  17.9  17.5  17.4  17.4   0.0   0.0
 2000 320    92  20.1  19.4  18.5  17.8  17.4  17.2  17.2  17.2   0.0   0.0
 2000 321    93  19.6  18.9  18.2  17.5  17.2  17.0  17.1  17.2   0.0   0.0
 2000 322    94  19.6  19.0  18.2  17.5  17.2  17.0  17.1  17.2   0.0   0.0
 2000 323    95  20.8  20.0  19.0  18.2  17.7  17.3  17.3  17.3   0.0   0.0
 2000 324    96  23.2  22.1  20.7  19.4  18.6  17.9  17.6  17.6   0.0   0.0
 2000 325    97  24.4  23.2  21.5  20.0  19.0  18.2  17.8  17.7   0.0   0.0
 2000 326    98  25.2  23.8  22.0  20.4  19.3  18.4  17.9  17.8   0.0   0.0
 2000 327    99  25.6  24.2  22.3  20.6  19.5  18.5  18.0  17.8   0.0   0.0
 2000 328   100  26.3  24.8  22.8  21.0  19.8  18.7  18.1  17.9   0.0   0.0
 2000 329   101  24.7  23.4  21.7  20.2  19.2  18.3  17.9  17.7   0.0   0.0
 2000 330   102  24.9  23.6  21.8  20.3  19.3  18.3  17.9  17.7   0.0   0.0
 2000 331   103  25.2  23.8  22.0  20.4  19.4  18.4  17.9  17.7   0.0   0.0
 2000 332   104  24.9  23.6  21.8  20.3  19.2  18.3  17.9  17.7   0.0   0.0
 2000 333   105  22.9  21.9  20.5  19.3  18.5  17.8  17.5  17.5   0.0   0.0
 2000 334   106  22.8  21.7  20.4  19.2  18.4  17.8  17.5  17.5   0.0   0.0
 2000 335   107  22.6  21.6  20.3  19.1  18.4  17.8  17.5  17.4   0.0   0.0
 2000 336   108  21.8  20.9  19.7  18.7  18.1  17.5  17.4  17.3   0.0   0.0
 2000 337   109  22.0  21.1  19.9  18.9  18.2  17.6  17.4  17.4   0.0   0.0
 2000 338   110  23.0  22.0  20.6  19.4  18.5  17.9  17.5  17.5   0.0   0.0
 2000 339   111  23.3  22.2  20.8  19.5  18.6  17.9  17.6  17.5   0.0   0.0
 2000 340   112  23.4  22.3  20.8  19.6  18.7  17.9  17.6  17.5   0.0   0.0
 2000 341   113  24.5  23.3  21.6  20.1  19.1  18.2  17.8  17.6   0.0   0.0
 2000 342   114  25.2  23.9  22.1  20.5  19.4  18.4  17.9  17.7   0.0   0.0
 2000 343   115  26.1  24.7  22.7  21.0  19.7  18.6  18.0  17.8   0.0   0.0
 2000 344   116  28.1  26.4  24.1  22.0  20.5  19.1  18.3  18.0   0.0   0.0
 2000 345   117  29.3  27.5  24.9  22.6  21.0  19.4  18.5  18.1   0.0   0.0
 2000 346   118  29.2  27.4  24.9  22.6  21.0  19.4  18.5  18.1   0.0   0.0
 2000 347   119  29.4  27.5  25.0  22.7  21.0  19.4  18.5  18.1   0.0   0.0
 2000 348   120  29.8  27.9  25.3  22.9  21.2  19.5  18.6  18.2   0.0   0.0
 2000 349   121  29.4  27.5  25.0  22.7  21.1  19.5  18.6  18.2   0.0   0.0
 2000 350   122  29.3  27.5  25.0  22.7  21.1  19.5  18.5  18.2   0.0   0.0
 2000 351   123  28.0  26.4  24.1  22.1  20.6  19.2  18.3  18.0   0.0   0.0
 2000 352   124  26.8  25.3  23.3  21.4  20.1  18.8  18.1  17.9   0.0   0.0
 2000 353   125  26.0  24.6  22.7  21.0  19.8  18.6  18.0  17.8   0.0   0.0
 2000 354   126  25.4  24.1  22.3  20.7  19.6  18.5  17.9  17.7   0.0   0.0
 2000 355   127  25.4  24.1  22.3  20.7  19.6  18.5  17.9  17.7   0.0   0.0
 2000 356   128  25.2  23.9  22.2  20.6  19.5  18.5  17.9  17.7   0.0   0.0
 2000 357   129  25.9  24.6  22.7  21.0  19.8  18.6  18.0  17.8   0.0   0.0
 2000 358   130  24.3  23.2  21.6  20.2  19.2  18.2  17.7  17.6   0.0   0.0
 2000 359   131  24.1  23.1  21.5  20.1  19.1  18.2  17.7  17.6   0.0   0.0
 2000 360   132  24.5  23.4  21.8  20.3  19.3  18.3  17.8  17.6   0.0   0.0
 2000 361   133  27.2  25.7  23.6  21.7  20.3  19.0  18.2  17.9   0.0   0.0
 2000 362   134  26.8  25.4  23.4  21.6  20.2  18.9  18.2  17.9   0.0   0.0
 2000 363   135  27.7  26.2  24.0  22.0  20.6  19.2  18.3  18.0   0.0   0.0
 2000 364   136  27.2  25.8  23.7  21.8  20.4  19.0  18.2  17.9   0.0   0.0
 2000 365   137  26.3  25.0  23.1  21.4  20.1  18.8  18.1  17.8   0.0   0.0
 2000 366   138  25.2  24.1  22.4  20.8  19.7  18.6  17.9  17.7   0.0   0.0
 2001 001   139  25.8  24.6  22.7  21.1  19.8  18.7  18.0  17.8   0.0   0.0
 2001 002   140  26.8  25.4  23.4  21.6  20.2  18.9  18.2  17.9   0.0   0.0
 2001 003   141  28.5  26.9  24.6  22.4  20.9  19.3  18.4  18.1   0.0   0.0
 2001 004   142  29.7  27.9  25.4  23.1  21.3  19.6  18.6  18.2   0.0   0.0
 2001 005   143  30.3  28.4  25.8  23.4  21.6  19.8  18.7  18.3   0.0   0.0
 2001 006   144  31.0  29.0  26.3  23.7  21.9  20.0  18.8  18.3   0.0   0.0
 2001 007   145  30.6  28.7  26.0  23.5  21.7  19.9  18.8  18.3   0.0   0.0
 2001 008   146  29.7  28.0  25.5  23.2  21.5  19.7  18.7  18.2   0.0   0.0
 2001 009   147  29.2  27.5  25.1  22.9  21.3  19.6  18.6  18.2   0.0   0.0
 2001 010   148  27.3  25.9  23.8  22.0  20.5  19.1  18.3  18.0   0.0   0.0
 2001 011   149  25.2  24.1  22.5  20.9  19.8  18.6  18.0  17.7   0.0   0.0
 2001 012   150  24.4  23.4  21.9  20.5  19.5  18.5  17.9  17.6   0.0   0.0
 2001 013   151  24.2  23.2  21.8  20.4  19.4  18.4  17.8  17.6   0.0   0.0
 2001 014   152  24.2  23.2  21.8  20.4  19.4  18.4  17.8  17.6   0.0   0.0
 2001 015   153  25.3  24.2  22.6  21.0  19.9  18.7  18.0  17.8   0.0   0.0
 2001 016   154  26.6  25.3  23.4  21.7  20.4  19.0  18.2  17.9   0.0   0.0
 2001 017   155  27.0  25.7  23.8  21.9  20.6  19.2  18.3  18.0   0.0   0.0
 2001 018   156  26.7  25.4  23.6  21.8  20.4  19.1  18.3  17.9   0.0   0.0
 2001 019   157  26.0  24.8  23.1  21.4  20.2  18.9  18.2  17.8   0.0   0.0
 2001 020   158  25.5  24.4  22.8  21.2  20.0  18.8  18.1  17.8   0.0   0.0
 2001 021   159  25.0  23.9  22.4  20.9  19.8  18.7  18.0  17.7   0.0   0.0
 2001 022   160  25.0  23.9  22.4  20.9  19.8  18.7  18.0  17.7   0.0   0.0
 2001 023   161  26.0  24.8  23.1  21.5  20.2  19.0  18.2  17.8   0.0   0.0
 2001 024   162  27.3  25.9  24.0  22.1  20.7  19.3  18.4  18.0   0.0   0.0
 2001 025   163  28.5  27.0  24.8  22.8  21.2  19.6  18.6  18.1   0.0   0.0

*DSSAT Cropping System Model Ver. 4.0.2.000               Aug 19, 2016; 14:29:32

*RUN   2        : UYMZ                    
 MODEL          : MZCER040 - Maize           
 EXPERIMENT     : UYMZ0215 MZ    late to create DSS                             
 TREATMENT  1   : UYMZ                    

@YEAR DOY   DAS  TS1D  TS2D  TS3D  TS4D  TS5D  TS6D  TS7D  TS8D  TS9D  TS10
 2001 228     0  19.5  19.0  18.6  18.4  18.2  18.2  18.1  18.0   0.0   0.0
 2001 229     1  19.2  18.8  18.4  18.2  18.1  18.1  18.0  18.0   0.0   0.0
 2001 230     2  18.5  18.3  18.0  17.9  17.9  17.9  17.9  17.9   0.0   0.0
 2001 231     3  17.7  17.5  17.4  17.4  17.5  17.7  17.8  17.8   0.0   0.0
 2001 232     4  16.7  16.7  16.7  16.9  17.1  17.4  17.6  17.7   0.0   0.0
 2001 233     5  15.9  16.0  16.1  16.5  16.8  17.2  17.5  17.6   0.0   0.0
 2001 234     6  15.4  15.5  15.8  16.2  16.6  17.1  17.4  17.5   0.0   0.0
 2001 235     7  15.2  15.3  15.6  16.0  16.5  17.0  17.3  17.5   0.0   0.0
 2001 236     8  15.5  15.6  15.8  16.2  16.6  17.0  17.4  17.5   0.0   0.0
 2001 237     9  16.4  16.4  16.4  16.6  16.9  17.3  17.5  17.6   0.0   0.0
 2001 238    10  18.3  18.0  17.7  17.6  17.6  17.7  17.8  17.8   0.0   0.0
 2001 239    11  18.7  18.3  18.0  17.8  17.7  17.8  17.8  17.8   0.0   0.0
 2001 240    12  18.6  18.2  17.9  17.7  17.7  17.7  17.8  17.8   0.0   0.0
 2001 241    13  19.2  18.8  18.3  18.0  17.9  17.9  17.9  17.9   0.0   0.0
 2001 242    14  20.0  19.4  18.8  18.4  18.2  18.1  18.0  17.9   0.0   0.0
 2001 243    15  19.2  18.8  18.3  18.0  17.9  17.9  17.9  17.8   0.0   0.0
 2001 244    16  19.3  18.8  18.3  18.0  17.9  17.9  17.9  17.8   0.0   0.0
 2001 245    17  19.5  19.0  18.5  18.1  18.0  17.9  17.9  17.9   0.0   0.0
 2001 246    18  18.4  18.1  17.7  17.5  17.5  17.6  17.7  17.7   0.0   0.0
 2001 247    19  16.4  16.3  16.3  16.5  16.7  17.1  17.3  17.5   0.0   0.0
 2001 248    20  15.1  15.2  15.4  15.8  16.2  16.7  17.1  17.3   0.0   0.0
 2001 249    21  14.7  14.8  15.1  15.5  16.0  16.6  17.0  17.2   0.0   0.0
 2001 250    22  14.8  14.9  15.2  15.6  16.0  16.6  17.0  17.2   0.0   0.0
 2001 251    23  15.2  15.3  15.4  15.8  16.2  16.7  17.1  17.3   0.0   0.0
 2001 252    24  15.5  15.5  15.6  15.9  16.3  16.8  17.1  17.3   0.0   0.0
 2001 253    25  15.8  15.7  15.8  16.0  16.4  16.8  17.2  17.3   0.0   0.0
 2001 254    26  15.7  15.7  15.8  16.0  16.3  16.8  17.1  17.3   0.0   0.0
 2001 255    27  15.9  15.8  15.8  16.1  16.4  16.8  17.2  17.3   0.0   0.0
 2001 256    28  16.2  16.1  16.1  16.2  16.5  16.9  17.2  17.4   0.0   0.0
 2001 257    29  16.3  16.1  16.1  16.3  16.5  16.9  17.2  17.4   0.0   0.0
 2001 258    30  15.7  15.7  15.7  16.0  16.3  16.7  17.1  17.3   0.0   0.0
 2001 259    31  14.8  14.9  15.1  15.5  15.9  16.5  16.9  17.2   0.0   0.0
 2001 260    32  14.3  14.4  14.7  15.2  15.7  16.3  16.8  17.1   0.0   0.0
 2001 261    33  14.5  14.6  14.9  15.3  15.7  16.4  16.9  17.1   0.0   0.0
 2001 262    34  15.8  15.7  15.7  15.9  16.2  16.7  17.1  17.2   0.0   0.0
 2001 263    35  17.9  17.5  17.2  17.0  17.0  17.2  17.4  17.5   0.0   0.0
 2001 264    36  20.1  19.5  18.7  18.2  17.9  17.8  17.7  17.7   0.0   0.0
 2001 265    37  21.9  21.0  19.9  19.1  18.6  18.2  18.0  17.9   0.0   0.0
 2001 266    38  22.3  21.3  20.1  19.2  18.7  18.3  18.0  18.0   0.0   0.0
 2001 267    39  22.9  21.8  20.5  19.5  18.9  18.4  18.1  18.0   0.0   0.0
 2001 268    40  21.7  20.8  19.7  18.9  18.4  18.1  17.9  17.9   0.0   0.0
 2001 269    41  20.4  19.7  18.8  18.2  17.9  17.7  17.7  17.7   0.0   0.0
 2001 270    42  18.5  18.1  17.5  17.3  17.2  17.3  17.4  17.5   0.0   0.0
 2001 271    43  17.9  17.5  17.1  16.9  16.9  17.1  17.3  17.4   0.0   0.0
 2001 272    44  17.1  16.8  16.5  16.5  16.6  16.9  17.1  17.3   0.0   0.0
 2001 273    45  17.2  16.9  16.6  16.6  16.6  16.9  17.1  17.3   0.0   0.0
 2001 274    46  17.7  17.3  16.9  16.8  16.8  17.0  17.2  17.3   0.0   0.0
 2001 275    47  18.2  17.8  17.3  17.1  17.0  17.1  17.3  17.4   0.0   0.0
 2001 276    48  18.1  17.7  17.2  17.0  16.9  17.1  17.2  17.4   0.0   0.0
 2001 277    49  18.1  17.6  17.2  16.9  16.9  17.0  17.2  17.3   0.0   0.0
 2001 278    50  18.1  17.7  17.2  17.0  16.9  17.0  17.2  17.3   0.0   0.0
 2001 279    51  18.3  17.9  17.3  17.1  17.0  17.1  17.2  17.4   0.0   0.0
 2001 280    52  18.6  18.1  17.5  17.2  17.1  17.1  17.3  17.4   0.0   0.0
 2001 281    53  18.6  18.1  17.6  17.2  17.1  17.1  17.3  17.4   0.0   0.0
 2001 282    54  18.1  17.6  17.1  16.9  16.8  17.0  17.2  17.3   0.0   0.0
 2001 283    55  18.6  18.1  17.5  17.2  17.1  17.1  17.3  17.4   0.0   0.0
 2001 284    56  19.0  18.4  17.8  17.3  17.2  17.2  17.3  17.4   0.0   0.0
 2001 285    57  19.2  18.6  17.9  17.4  17.2  17.2  17.3  17.4   0.0   0.0
 2001 286    58  19.9  19.2  18.4  17.8  17.5  17.4  17.4  17.5   0.0   0.0
 2001 287    59  21.1  20.2  19.2  18.4  17.9  17.7  17.6  17.6   0.0   0.0
 2001 288    60  20.6  19.8  18.9  18.1  17.8  17.5  17.5  17.5   0.0   0.0
 2001 289    61  20.6  19.8  18.9  18.2  17.8  17.5  17.5  17.5   0.0   0.0
 2001 290    62  21.2  20.4  19.3  18.5  18.0  17.7  17.6  17.6   0.0   0.0
 2001 291    63  21.9  20.9  19.7  18.8  18.2  17.8  17.7  17.7   0.0   0.0
 2001 292    64  22.3  21.3  20.0  19.0  18.4  17.9  17.8  17.7   0.0   0.0
 2001 293    65  23.6  22.4  20.9  19.7  18.9  18.2  17.9  17.8   0.0   0.0
 2001 294    66  23.2  22.1  20.6  19.5  18.7  18.1  17.9  17.8   0.0   0.0
 2001 295    67  22.5  21.4  20.1  19.1  18.4  17.9  17.7  17.7   0.0   0.0
 2001 296    68  21.8  20.9  19.7  18.7  18.2  17.8  17.6  17.6   0.0   0.0
 2001 297    69  21.9  20.9  19.7  18.7  18.2  17.8  17.6  17.6   0.0   0.0
 2001 298    70  22.8  21.7  20.3  19.2  18.5  18.0  17.8  17.7   0.0   0.0
 2001 299    71  23.4  22.3  20.8  19.5  18.8  18.1  17.9  17.8   0.0   0.0
 2001 300    72  23.8  22.6  21.0  19.7  18.9  18.2  17.9  17.8   0.0   0.0
 2001 301    73  23.8  22.6  21.0  19.8  18.9  18.2  17.9  17.8   0.0   0.0
 2001 302    74  23.2  22.1  20.6  19.4  18.7  18.1  17.8  17.7   0.0   0.0
 2001 303    75  21.3  20.5  19.3  18.5  17.9  17.6  17.5  17.5   0.0   0.0
 2001 304    76  21.2  20.3  19.2  18.4  17.9  17.5  17.4  17.5   0.0   0.0
 2001 305    77  21.8  20.8  19.6  18.7  18.1  17.7  17.5  17.5   0.0   0.0
 2001 306    78  21.6  20.7  19.5  18.6  18.0  17.6  17.5  17.5   0.0   0.0
 2001 307    79  21.5  20.6  19.5  18.5  18.0  17.6  17.5  17.5   0.0   0.0
 2001 308    80  21.9  21.0  19.7  18.7  18.1  17.7  17.5  17.5   0.0   0.0
 2001 309    81  23.0  21.9  20.5  19.3  18.5  17.9  17.7  17.6   0.0   0.0
 2001 310    82  23.3  22.1  20.7  19.4  18.6  18.0  17.7  17.7   0.0   0.0
 2001 311    83  22.7  21.6  20.3  19.1  18.4  17.9  17.6  17.6   0.0   0.0
 2001 312    84  22.4  21.4  20.1  19.0  18.3  17.8  17.6  17.5   0.0   0.0
 2001 313    85  22.2  21.2  20.0  18.9  18.2  17.7  17.5  17.5   0.0   0.0
 2001 314    86  21.5  20.6  19.5  18.5  18.0  17.5  17.4  17.4   0.0   0.0
 2001 315    87  21.6  20.7  19.5  18.6  18.0  17.6  17.4  17.4   0.0   0.0
 2001 316    88  23.3  22.2  20.7  19.5  18.7  18.0  17.7  17.6   0.0   0.0
 2001 317    89  23.8  22.6  21.0  19.7  18.8  18.1  17.8  17.7   0.0   0.0
 2001 318    90  23.9  22.7  21.1  19.8  18.9  18.1  17.8  17.7   0.0   0.0
 2001 319    91  24.1  22.9  21.3  19.9  19.0  18.2  17.8  17.7   0.0   0.0
 2001 320    92  23.1  22.0  20.6  19.4  18.6  17.9  17.6  17.6   0.0   0.0
 2001 321    93  22.5  21.4  20.1  19.0  18.3  17.7  17.5  17.5   0.0   0.0
 2001 322    94  23.5  22.4  20.8  19.6  18.7  18.0  17.7  17.6   0.0   0.0
 2001 323    95  24.5  23.2  21.5  20.1  19.1  18.3  17.8  17.7   0.0   0.0
 2001 324    96  25.9  24.4  22.5  20.8  19.6  18.6  18.1  17.9   0.0   0.0
 2001 325    97  27.1  25.4  23.3  21.4  20.1  18.9  18.2  18.0   0.0   0.0
 2001 326    98  28.0  26.2  23.9  21.8  20.4  19.1  18.4  18.1   0.0   0.0
 2001 327    99  28.8  26.9  24.4  22.2  20.7  19.3  18.5  18.2   0.0   0.0
 2001 328   100  27.1  25.4  23.3  21.4  20.1  18.9  18.2  18.0   0.0   0.0
 2001 329   101  24.4  23.2  21.5  20.1  19.1  18.2  17.8  17.7   0.0   0.0
 2001 330   102  23.1  22.0  20.6  19.4  18.6  17.9  17.6  17.5   0.0   0.0
 2001 331   103  22.3  21.3  20.1  19.0  18.3  17.7  17.5  17.4   0.0   0.0
 2001 332   104  20.6  19.9  18.9  18.1  17.6  17.3  17.2  17.2   0.0   0.0
 2001 333   105  21.1  20.3  19.3  18.4  17.8  17.4  17.3  17.3   0.0   0.0
 2001 334   106  20.9  20.1  19.1  18.3  17.7  17.3  17.2  17.2   0.0   0.0
 2001 335   107  21.7  20.8  19.7  18.7  18.1  17.5  17.3  17.3   0.0   0.0
 2001 336   108  21.8  20.9  19.8  18.8  18.1  17.6  17.4  17.3   0.0   0.0
 2001 337   109  21.1  20.3  19.3  18.4  17.8  17.4  17.2  17.3   0.0   0.0
 2001 338   110  20.7  20.0  19.0  18.2  17.7  17.3  17.2  17.2   0.0   0.0
 2001 339   111  21.6  20.8  19.7  18.7  18.0  17.5  17.3  17.3   0.0   0.0
 2001 340   112  21.7  20.9  19.7  18.7  18.1  17.5  17.3  17.3   0.0   0.0
 2001 341   113  22.2  21.3  20.1  19.0  18.3  17.7  17.4  17.4   0.0   0.0
 2001 342   114  22.1  21.2  20.0  19.0  18.3  17.7  17.4  17.4   0.0   0.0
 2001 343   115  22.2  21.3  20.1  19.0  18.3  17.7  17.4  17.4   0.0   0.0
 2001 344   116  22.7  21.7  20.4  19.3  18.5  17.8  17.5  17.4   0.0   0.0
 2001 345   117  22.7  21.7  20.4  19.3  18.5  17.8  17.5  17.4   0.0   0.0
 2001 346   118  22.7  21.8  20.5  19.3  18.5  17.8  17.5  17.4   0.0   0.0
 2001 347   119  24.2  23.0  21.5  20.0  19.1  18.2  17.7  17.6   0.0   0.0
 2001 348   120  25.2  23.9  22.1  20.6  19.4  18.4  17.9  17.7   0.0   0.0
 2001 349   121  25.5  24.2  22.4  20.7  19.6  18.5  17.9  17.7   0.0   0.0
 2001 350   122  25.7  24.3  22.5  20.8  19.6  18.5  18.0  17.7   0.0   0.0
 2001 351   123  25.8  24.4  22.6  20.9  19.7  18.6  18.0  17.7   0.0   0.0
 2001 352   124  25.9  24.5  22.6  20.9  19.7  18.6  18.0  17.8   0.0   0.0
 2001 353   125  26.2  24.8  22.9  21.2  19.9  18.7  18.1  17.8   0.0   0.0
 2001 354   126  27.0  25.5  23.4  21.5  20.2  18.9  18.2  17.9   0.0   0.0
 2001 355   127  26.1  24.7  22.8  21.1  19.8  18.7  18.0  17.8   0.0   0.0
 2001 356   128  25.3  24.0  22.3  20.7  19.6  18.5  17.9  17.7   0.0   0.0
 2001 357   129  25.0  23.8  22.2  20.6  19.5  18.5  17.9  17.7   0.0   0.0
 2001 358   130  24.8  23.6  22.0  20.5  19.4  18.4  17.8  17.6   0.0   0.0
 2001 359   131  24.5  23.4  21.8  20.4  19.3  18.3  17.8  17.6   0.0   0.0
 2001 360   132  26.4  25.0  23.1  21.3  20.0  18.8  18.1  17.8   0.0   0.0
 2001 361   133  27.8  26.3  24.1  22.1  20.6  19.2  18.3  18.0   0.0   0.0
 2001 362   134  28.7  27.0  24.6  22.5  20.9  19.4  18.4  18.1   0.0   0.0
 2001 363   135  29.2  27.4  25.0  22.8  21.1  19.5  18.5  18.1   0.0   0.0
 2001 364   136  29.7  27.9  25.4  23.0  21.3  19.6  18.6  18.2   0.0   0.0
 2001 365   137  29.7  27.9  25.4  23.0  21.3  19.6  18.6  18.2   0.0   0.0
 2002 001   138  29.1  27.4  25.0  22.7  21.1  19.5  18.5  18.1   0.0   0.0
 2002 002   139  28.6  26.9  24.6  22.4  20.9  19.3  18.4  18.1   0.0   0.0
 2002 003   140  28.2  26.6  24.3  22.2  20.7  19.2  18.4  18.0   0.0   0.0
 2002 004   141  27.5  26.0  23.9  21.9  20.5  19.1  18.3  17.9   0.0   0.0
 2002 005   142  26.0  24.7  22.8  21.1  19.9  18.7  18.0  17.8   0.0   0.0
 2002 006   143  25.1  24.0  22.3  20.8  19.6  18.5  17.9  17.7   0.0   0.0
 2002 007   144  24.3  23.3  21.8  20.4  19.3  18.4  17.8  17.6   0.0   0.0
 2002 008   145  24.5  23.4  21.9  20.4  19.4  18.4  17.8  17.6   0.0   0.0
 2002 009   146  24.4  23.3  21.8  20.4  19.4  18.4  17.8  17.6   0.0   0.0
 2002 010   147  25.6  24.4  22.7  21.1  19.9  18.7  18.0  17.7   0.0   0.0
 2002 011   148  26.7  25.4  23.5  21.6  20.3  19.0  18.2  17.9   0.0   0.0
 2002 012   149  28.3  26.7  24.5  22.5  20.9  19.4  18.4  18.0   0.0   0.0
 2002 013   150  29.1  27.4  25.1  22.9  21.2  19.6  18.6  18.1   0.0   0.0
 2002 014   151  28.4  26.8  24.6  22.5  21.0  19.4  18.5  18.1   0.0   0.0
 2002 015   152  27.3  25.9  23.9  22.0  20.6  19.2  18.3  18.0   0.0   0.0
 2002 016   153  26.2  24.9  23.1  21.4  20.2  18.9  18.1  17.8   0.0   0.0
 2002 017   154  24.8  23.8  22.2  20.8  19.6  18.6  17.9  17.7   0.0   0.0
 2002 018   155  23.4  22.6  21.3  20.0  19.1  18.2  17.7  17.5   0.0   0.0
 2002 019   156  24.4  23.4  21.9  20.5  19.5  18.5  17.9  17.6   0.0   0.0
 2002 020   157  26.3  25.0  23.2  21.5  20.2  18.9  18.2  17.8   0.0   0.0
 2002 021   158  27.2  25.8  23.9  22.0  20.6  19.2  18.3  17.9   0.0   0.0
 2002 022   159  28.5  27.0  24.8  22.7  21.1  19.5  18.5  18.1   0.0   0.0
 2002 023   160  29.9  28.2  25.8  23.4  21.7  19.9  18.7  18.3   0.0   0.0

*DSSAT Cropping System Model Ver. 4.0.2.000               Aug 19, 2016; 14:29:32

*RUN   3        : UYMZ                    
 MODEL          : MZCER040 - Maize           
 EXPERIMENT     : UYMZ0215 MZ    late to create DSS                             
 TREATMENT  1   : UYMZ                    

@YEAR DOY   DAS  TS1D  TS2D  TS3D  TS4D  TS5D  TS6D  TS7D  TS8D  TS9D  TS10
 2002 228     0  14.9  15.1  15.5  16.0  16.5  17.0  17.4  17.5   0.0   0.0
 2002 229     1  16.4  16.4  16.5  16.8  17.1  17.4  17.6  17.6   0.0   0.0
 2002 230     2  18.4  18.1  17.9  17.8  17.8  17.9  17.9  17.9   0.0   0.0
 2002 231     3  19.4  19.0  18.6  18.3  18.2  18.1  18.0  18.0   0.0   0.0
 2002 232     4  19.1  18.7  18.3  18.1  18.0  18.0  18.0  17.9   0.0   0.0
 2002 233     5  18.8  18.5  18.1  17.9  17.9  17.9  17.9  17.9   0.0   0.0
 2002 234     6  17.5  17.4  17.2  17.3  17.4  17.6  17.7  17.7   0.0   0.0
 2002 235     7  16.4  16.4  16.5  16.7  16.9  17.3  17.5  17.6   0.0   0.0
 2002 236     8  17.5  17.3  17.2  17.2  17.3  17.5  17.7  17.7   0.0   0.0
 2002 237     9  20.7  20.1  19.4  18.8  18.6  18.3  18.2  18.1   0.0   0.0
 2002 238    10  23.5  22.5  21.3  20.3  19.6  19.0  18.6  18.4   0.0   0.0
 2002 239    11  25.5  24.2  22.6  21.3  20.4  19.5  18.9  18.6   0.0   0.0
 2002 240    12  26.9  25.4  23.5  22.0  20.9  19.8  19.1  18.7   0.0   0.0
 2002 241    13  25.3  24.0  22.5  21.2  20.3  19.4  18.9  18.6   0.0   0.0
 2002 242    14  22.3  21.4  20.4  19.6  19.1  18.6  18.4  18.2   0.0   0.0
 2002 243    15  18.6  18.2  17.8  17.7  17.6  17.7  17.8  17.8   0.0   0.0
 2002 244    16  15.3  15.4  15.6  16.0  16.4  16.9  17.2  17.4   0.0   0.0
 2002 245    17  12.6  13.0  13.7  14.5  15.3  16.1  16.8  17.1   0.0   0.0
 2002 246    18  12.0  12.5  13.3  14.2  15.0  16.0  16.7  17.0   0.0   0.0
 2002 247    19  12.9  13.2  13.9  14.6  15.3  16.2  16.8  17.1   0.0   0.0
 2002 248    20  14.6  14.8  15.1  15.6  16.0  16.6  17.1  17.3   0.0   0.0
 2002 249    21  15.6  15.6  15.7  16.0  16.4  16.8  17.2  17.4   0.0   0.0
 2002 250    22  16.0  16.0  16.0  16.2  16.5  16.9  17.3  17.4   0.0   0.0
 2002 251    23  16.1  16.0  16.1  16.3  16.5  16.9  17.3  17.4   0.0   0.0
 2002 252    24  16.0  15.9  16.0  16.2  16.5  16.9  17.2  17.4   0.0   0.0
 2002 253    25  15.1  15.1  15.3  15.7  16.1  16.6  17.1  17.3   0.0   0.0
 2002 254    26  15.5  15.5  15.6  15.9  16.2  16.7  17.1  17.3   0.0   0.0
 2002 255    27  16.0  15.9  16.0  16.1  16.4  16.8  17.2  17.3   0.0   0.0
 2002 256    28  16.5  16.3  16.3  16.4  16.6  16.9  17.2  17.4   0.0   0.0
 2002 257    29  16.5  16.3  16.2  16.4  16.6  16.9  17.2  17.4   0.0   0.0
 2002 258    30  16.5  16.3  16.2  16.3  16.6  16.9  17.2  17.4   0.0   0.0
 2002 259    31  16.4  16.2  16.2  16.3  16.5  16.9  17.2  17.3   0.0   0.0
 2002 260    32  16.6  16.5  16.3  16.4  16.6  16.9  17.2  17.4   0.0   0.0
 2002 261    33  16.8  16.6  16.4  16.5  16.6  16.9  17.2  17.4   0.0   0.0
 2002 262    34  16.8  16.5  16.4  16.4  16.6  16.9  17.2  17.4   0.0   0.0
 2002 263    35  16.6  16.4  16.2  16.3  16.5  16.8  17.2  17.3   0.0   0.0
 2002 264    36  16.6  16.4  16.3  16.3  16.5  16.8  17.2  17.3   0.0   0.0
 2002 265    37  16.9  16.7  16.5  16.5  16.6  16.9  17.2  17.3   0.0   0.0
 2002 266    38  17.0  16.8  16.5  16.5  16.6  16.9  17.2  17.3   0.0   0.0
 2002 267    39  17.5  17.2  16.9  16.8  16.8  17.0  17.3  17.4   0.0   0.0
 2002 268    40  19.1  18.6  18.0  17.6  17.4  17.4  17.5  17.6   0.0   0.0
 2002 269    41  20.5  19.7  18.9  18.3  17.9  17.8  17.7  17.7   0.0   0.0
 2002 270    42  21.5  20.6  19.5  18.8  18.3  18.0  17.9  17.8   0.0   0.0
 2002 271    43  23.2  22.1  20.7  19.6  19.0  18.4  18.1  18.0   0.0   0.0
 2002 272    44  22.8  21.8  20.5  19.5  18.8  18.3  18.1  18.0   0.0   0.0
 2002 273    45  22.0  21.1  19.9  19.0  18.5  18.1  17.9  17.9   0.0   0.0
 2002 274    46  21.4  20.5  19.5  18.7  18.2  17.9  17.8  17.8   0.0   0.0
 2002 275    47  21.0  20.1  19.2  18.5  18.1  17.8  17.7  17.7   0.0   0.0
 2002 276    48  20.0  19.4  18.5  18.0  17.7  17.5  17.6  17.6   0.0   0.0
 2002 277    49  21.1  20.3  19.3  18.5  18.1  17.8  17.7  17.7   0.0   0.0
 2002 278    50  21.8  20.9  19.8  18.9  18.4  18.0  17.8  17.8   0.0   0.0
 2002 279    51  23.1  22.0  20.6  19.5  18.8  18.3  18.0  17.9   0.0   0.0
 2002 280    52  22.5  21.5  20.2  19.2  18.6  18.1  17.9  17.8   0.0   0.0
 2002 281    53  22.0  21.0  19.9  18.9  18.4  18.0  17.8  17.8   0.0   0.0
 2002 282    54  21.1  20.3  19.2  18.5  18.0  17.7  17.7  17.7   0.0   0.0
 2002 283    55  20.3  19.6  18.7  18.1  17.7  17.5  17.5  17.6   0.0   0.0
 2002 284    56  19.5  18.9  18.1  17.6  17.4  17.3  17.4  17.4   0.0   0.0
 2002 285    57  20.9  20.1  19.1  18.4  17.9  17.7  17.6  17.6   0.0   0.0
 2002 286    58  22.8  21.7  20.4  19.3  18.6  18.1  17.9  17.8   0.0   0.0
 2002 287    59  25.0  23.6  21.9  20.4  19.5  18.7  18.2  18.1   0.0   0.0
 2002 288    60  26.7  25.1  23.1  21.3  20.1  19.1  18.5  18.2   0.0   0.0
 2002 289    61  26.4  24.8  22.8  21.1  20.0  19.0  18.4  18.2   0.0   0.0
 2002 290    62  25.1  23.8  22.0  20.5  19.5  18.7  18.2  18.0   0.0   0.0
 2002 291    63  24.2  23.0  21.3  20.0  19.1  18.4  18.1  17.9   0.0   0.0
 2002 292    64  22.9  21.8  20.4  19.3  18.6  18.1  17.8  17.8   0.0   0.0
 2002 293    65  21.8  20.9  19.7  18.8  18.2  17.8  17.7  17.6   0.0   0.0
 2002 294    66  20.5  19.8  18.8  18.1  17.7  17.5  17.4  17.5   0.0   0.0
 2002 295    67  19.9  19.2  18.4  17.8  17.4  17.3  17.3  17.4   0.0   0.0
 2002 296    68  19.3  18.7  18.0  17.4  17.2  17.1  17.2  17.3   0.0   0.0
 2002 297    69  19.7  19.0  18.2  17.6  17.3  17.2  17.3  17.4   0.0   0.0
 2002 298    70  19.5  18.9  18.1  17.5  17.3  17.2  17.2  17.3   0.0   0.0
 2002 299    71  22.0  21.0  19.8  18.8  18.2  17.8  17.6  17.6   0.0   0.0
 2002 300    72  23.2  22.0  20.6  19.4  18.7  18.1  17.8  17.7   0.0   0.0
 2002 301    73  24.0  22.7  21.1  19.8  19.0  18.3  17.9  17.8   0.0   0.0
 2002 302    74  22.5  21.5  20.2  19.1  18.4  17.9  17.7  17.6   0.0   0.0
 2002 303    75  21.8  20.8  19.6  18.7  18.1  17.7  17.6  17.5   0.0   0.0
 2002 304    76  20.9  20.1  19.1  18.3  17.8  17.5  17.4  17.4   0.0   0.0
 2002 305    77  20.7  19.9  18.9  18.1  17.7  17.4  17.4  17.4   0.0   0.0
 2002 306    78  20.5  19.7  18.8  18.0  17.6  17.3  17.3  17.4   0.0   0.0
 2002 307    79  20.4  19.6  18.7  18.0  17.5  17.3  17.3  17.3   0.0   0.0
 2002 308    80  20.0  19.3  18.4  17.8  17.4  17.2  17.2  17.3   0.0   0.0
 2002 309    81  19.3  18.7  17.9  17.4  17.1  17.0  17.1  17.2   0.0   0.0
 2002 310    82  19.0  18.4  17.7  17.2  17.0  16.9  17.0  17.2   0.0   0.0
 2002 311    83  19.1  18.5  17.8  17.3  17.0  16.9  17.1  17.2   0.0   0.0
 2002 312    84  21.0  20.2  19.1  18.3  17.8  17.4  17.4  17.4   0.0   0.0
 2002 313    85  21.9  21.0  19.8  18.8  18.1  17.7  17.5  17.5   0.0   0.0
 2002 314    86  21.7  20.8  19.6  18.6  18.0  17.6  17.5  17.4   0.0   0.0
 2002 315    87  21.5  20.6  19.5  18.5  18.0  17.5  17.4  17.4   0.0   0.0
 2002 316    88  21.8  20.9  19.7  18.7  18.1  17.6  17.5  17.4   0.0   0.0
 2002 317    89  22.2  21.3  20.0  18.9  18.2  17.7  17.5  17.5   0.0   0.0
 2002 318    90  23.9  22.7  21.1  19.7  18.9  18.1  17.8  17.7   0.0   0.0
 2002 319    91  25.3  23.9  22.0  20.5  19.4  18.5  18.0  17.8   0.0   0.0
 2002 320    92  27.1  25.5  23.3  21.4  20.1  18.9  18.3  18.0   0.0   0.0
 2002 321    93  27.1  25.5  23.3  21.4  20.1  18.9  18.3  18.0   0.0   0.0
 2002 322    94  26.9  25.3  23.1  21.3  20.0  18.8  18.2  18.0   0.0   0.0
 2002 323    95  26.4  24.8  22.8  21.0  19.8  18.7  18.1  17.9   0.0   0.0
 2002 324    96  26.2  24.7  22.7  21.0  19.8  18.7  18.1  17.9   0.0   0.0
 2002 325    97  25.0  23.7  21.9  20.4  19.3  18.4  17.9  17.8   0.0   0.0
 2002 326    98  24.6  23.3  21.6  20.1  19.1  18.3  17.8  17.7   0.0   0.0
 2002 327    99  24.9  23.6  21.8  20.3  19.3  18.4  17.9  17.7   0.0   0.0
 2002 328   100  25.3  23.9  22.1  20.5  19.4  18.4  18.0  17.8   0.0   0.0
 2002 329   101  25.4  24.0  22.2  20.6  19.5  18.5  18.0  17.8   0.0   0.0
 2002 330   102  26.1  24.7  22.7  21.0  19.8  18.7  18.1  17.9   0.0   0.0
 2002 331   103  26.8  25.2  23.1  21.3  20.0  18.8  18.2  17.9   0.0   0.0
 2002 332   104  24.7  23.4  21.7  20.2  19.2  18.3  17.8  17.7   0.0   0.0
 2002 333   105  23.4  22.3  20.9  19.6  18.7  18.0  17.6  17.5   0.0   0.0
 2002 334   106  24.1  22.9  21.3  19.9  19.0  18.2  17.7  17.6   0.0   0.0
 2002 335   107  22.7  21.7  20.4  19.3  18.5  17.8  17.5  17.5   0.0   0.0
 2002 336   108  22.0  21.1  19.9  18.9  18.2  17.6  17.4  17.4   0.0   0.0
 2002 337   109  23.2  22.1  20.7  19.5  18.7  17.9  17.6  17.5   0.0   0.0
 2002 338   110  23.0  22.0  20.6  19.4  18.6  17.9  17.6  17.5   0.0   0.0
 2002 339   111  22.8  21.8  20.5  19.3  18.5  17.8  17.5  17.4   0.0   0.0
 2002 340   112  23.7  22.6  21.1  19.8  18.9  18.1  17.7  17.5   0.0   0.0
 2002 341   113  23.6  22.5  21.1  19.8  18.9  18.0  17.7  17.5   0.0   0.0
 2002 342   114  23.0  22.0  20.7  19.4  18.6  17.9  17.6  17.5   0.0   0.0
 2002 343   115  23.7  22.6  21.1  19.8  18.9  18.1  17.7  17.5   0.0   0.0
 2002 344   116  22.9  21.9  20.6  19.4  18.6  17.9  17.5  17.4   0.0   0.0
 2002 345   117  23.3  22.3  20.9  19.6  18.8  18.0  17.6  17.5   0.0   0.0
 2002 346   118  23.7  22.7  21.2  19.8  18.9  18.1  17.7  17.5   0.0   0.0
 2002 347   119  24.1  23.0  21.4  20.0  19.1  18.2  17.7  17.6   0.0   0.0
 2002 348   120  24.8  23.5  21.9  20.4  19.3  18.3  17.8  17.6   0.0   0.0
 2002 349   121  26.0  24.6  22.7  21.0  19.8  18.7  18.0  17.8   0.0   0.0
 2002 350   122  26.2  24.8  22.9  21.1  19.9  18.7  18.0  17.8   0.0   0.0
 2002 351   123  26.3  24.9  23.0  21.2  19.9  18.7  18.1  17.8   0.0   0.0
 2002 352   124  27.0  25.5  23.4  21.5  20.2  18.9  18.2  17.9   0.0   0.0
 2002 353   125  25.6  24.3  22.5  20.9  19.7  18.6  18.0  17.7   0.0   0.0
 2002 354   126  24.7  23.6  21.9  20.4  19.4  18.4  17.8  17.6   0.0   0.0
 2002 355   127  24.5  23.4  21.8  20.3  19.3  18.3  17.8  17.6   0.0   0.0
 2002 356   128  24.6  23.5  21.9  20.4  19.3  18.3  17.8  17.6   0.0   0.0
 2002 357   129  22.8  21.9  20.6  19.5  18.7  17.9  17.5  17.4   0.0   0.0
 2002 358   130  23.1  22.2  20.9  19.7  18.8  18.0  17.6  17.5   0.0   0.0
 2002 359   131  23.6  22.6  21.2  19.9  19.0  18.1  17.7  17.5   0.0   0.0
 2002 360   132  24.2  23.1  21.6  20.2  19.2  18.3  17.8  17.6   0.0   0.0
 2002 361   133  25.5  24.3  22.5  20.9  19.7  18.6  18.0  17.7   0.0   0.0
 2002 362   134  27.1  25.7  23.6  21.8  20.4  19.0  18.2  17.9   0.0   0.0
 2002 363   135  28.0  26.4  24.3  22.2  20.7  19.3  18.4  18.0   0.0   0.0
 2002 364   136  28.0  26.5  24.3  22.2  20.7  19.3  18.4  18.0   0.0   0.0
 2002 365   137  26.9  25.5  23.5  21.7  20.3  19.0  18.2  17.9   0.0   0.0
 2003 001   138  25.3  24.1  22.4  20.8  19.7  18.6  17.9  17.7   0.0   0.0
 2003 002   139  25.1  23.9  22.2  20.7  19.6  18.5  17.9  17.7   0.0   0.0
 2003 003   140  24.5  23.4  21.8  20.4  19.4  18.4  17.8  17.6   0.0   0.0
 2003 004   141  24.9  23.7  22.1  20.6  19.5  18.5  17.9  17.7   0.0   0.0
 2003 005   142  26.2  24.9  23.0  21.3  20.0  18.8  18.1  17.8   0.0   0.0
 2003 006   143  26.6  25.3  23.3  21.5  20.2  18.9  18.2  17.9   0.0   0.0
 2003 007   144  27.4  25.9  23.9  21.9  20.5  19.1  18.3  17.9   0.0   0.0
 2003 008   145  28.6  27.0  24.7  22.6  21.0  19.4  18.5  18.1   0.0   0.0
 2003 009   146  28.8  27.1  24.8  22.7  21.1  19.5  18.5  18.1   0.0   0.0
 2003 010   147  28.0  26.5  24.3  22.3  20.8  19.3  18.4  18.0   0.0   0.0
 2003 011   148  28.3  26.7  24.5  22.4  20.9  19.4  18.4  18.1   0.0   0.0
 2003 012   149  28.4  26.8  24.6  22.5  20.9  19.4  18.4  18.1   0.0   0.0
 2003 013   150  28.2  26.6  24.5  22.4  20.9  19.3  18.4  18.0   0.0   0.0
 2003 014   151  28.4  26.9  24.6  22.5  21.0  19.4  18.5  18.1   0.0   0.0
 2003 015   152  29.3  27.6  25.2  23.0  21.4  19.7  18.6  18.2   0.0   0.0
 2003 016   153  29.8  28.0  25.6  23.3  21.5  19.8  18.7  18.2   0.0   0.0
 2003 017   154  30.4  28.6  26.0  23.6  21.8  19.9  18.8  18.3   0.0   0.0
 2003 018   155  30.1  28.3  25.8  23.5  21.7  19.9  18.8  18.3   0.0   0.0

*DSSAT Cropping System Model Ver. 4.0.2.000               Aug 19, 2016; 14:29:32

*RUN   4        : UYMZ                    
 MODEL          : MZCER040 - Maize           
 EXPERIMENT     : UYMZ0215 MZ    late to create DSS                             
 TREATMENT  1   : UYMZ                    

@YEAR DOY   DAS  TS1D  TS2D  TS3D  TS4D  TS5D  TS6D  TS7D  TS8D  TS9D  TS10
 2003 228     0  13.0  13.4  14.2  15.1  15.8  16.6  17.1  17.3   0.0   0.0
 2003 229     1  13.3  13.7  14.4  15.2  15.9  16.6  17.1  17.3   0.0   0.0
 2003 230     2  14.4  14.7  15.2  15.7  16.3  16.9  17.3  17.4   0.0   0.0
 2003 231     3  16.1  16.1  16.3  16.6  16.9  17.3  17.5  17.6   0.0   0.0
 2003 232     4  18.1  17.9  17.7  17.6  17.7  17.8  17.8  17.8   0.0   0.0
 2003 233     5  21.0  20.3  19.6  19.0  18.7  18.5  18.3  18.1   0.0   0.0
 2003 234     6  20.6  20.0  19.3  18.8  18.6  18.4  18.2  18.1   0.0   0.0
 2003 235     7  18.7  18.4  18.0  17.9  17.8  17.9  17.9  17.9   0.0   0.0
 2003 236     8  16.5  16.5  16.5  16.7  17.0  17.3  17.5  17.6   0.0   0.0
 2003 237     9  13.7  14.0  14.6  15.2  15.8  16.5  17.0  17.3   0.0   0.0
 2003 238    10  10.3  11.0  12.2  13.4  14.5  15.7  16.5  16.8   0.0   0.0
 2003 239    11   9.4  10.3  11.6  13.0  14.1  15.4  16.3  16.7   0.0   0.0
 2003 240    12   9.8  10.6  11.9  13.2  14.3  15.5  16.4  16.8   0.0   0.0
 2003 241    13  10.0  10.7  12.0  13.2  14.3  15.5  16.4  16.8   0.0   0.0
 2003 242    14  10.7  11.4  12.4  13.6  14.6  15.7  16.5  16.9   0.0   0.0
 2003 243    15  11.4  12.0  12.9  14.0  14.9  15.9  16.6  16.9   0.0   0.0
 2003 244    16  13.2  13.5  14.1  14.8  15.5  16.3  16.9  17.1   0.0   0.0
 2003 245    17  14.6  14.7  15.1  15.6  16.0  16.6  17.1  17.3   0.0   0.0
 2003 246    18  16.7  16.5  16.5  16.6  16.8  17.2  17.4  17.5   0.0   0.0
 2003 247    19  18.2  17.9  17.6  17.4  17.4  17.5  17.6  17.7   0.0   0.0
 2003 248    20  20.1  19.5  18.8  18.4  18.1  18.0  17.9  17.9   0.0   0.0
 2003 249    21  22.5  21.6  20.5  19.6  19.1  18.6  18.3  18.2   0.0   0.0
 2003 250    22  23.1  22.1  20.8  19.9  19.2  18.7  18.4  18.2   0.0   0.0
 2003 251    23  21.5  20.7  19.8  19.1  18.6  18.3  18.1  18.0   0.0   0.0
 2003 252    24  20.0  19.4  18.7  18.2  18.0  17.9  17.9  17.8   0.0   0.0
 2003 253    25  17.9  17.6  17.3  17.2  17.2  17.4  17.5  17.6   0.0   0.0
 2003 254    26  15.2  15.2  15.4  15.8  16.1  16.7  17.1  17.3   0.0   0.0
 2003 255    27  14.9  15.0  15.2  15.6  16.0  16.6  17.0  17.2   0.0   0.0
 2003 256    28  14.9  14.9  15.2  15.6  16.0  16.5  17.0  17.2   0.0   0.0
 2003 257    29  14.9  15.0  15.2  15.5  16.0  16.5  17.0  17.2   0.0   0.0
 2003 258    30  15.1  15.1  15.3  15.6  16.0  16.6  17.0  17.2   0.0   0.0
 2003 259    31  14.8  14.8  15.1  15.5  15.9  16.5  16.9  17.2   0.0   0.0
 2003 260    32  14.0  14.1  14.5  15.0  15.6  16.2  16.8  17.1   0.0   0.0
 2003 261    33  15.0  15.1  15.2  15.6  16.0  16.5  17.0  17.2   0.0   0.0
 2003 262    34  16.7  16.5  16.4  16.4  16.6  16.9  17.2  17.4   0.0   0.0
 2003 263    35  17.4  17.1  16.8  16.8  16.8  17.1  17.3  17.4   0.0   0.0
 2003 264    36  18.4  18.0  17.5  17.3  17.2  17.3  17.5  17.5   0.0   0.0
 2003 265    37  19.8  19.2  18.4  18.0  17.7  17.6  17.7  17.7   0.0   0.0
 2003 266    38  19.7  19.1  18.4  17.9  17.7  17.6  17.6  17.7   0.0   0.0
 2003 267    39  19.1  18.6  18.0  17.6  17.5  17.4  17.5  17.6   0.0   0.0
 2003 268    40  19.1  18.5  17.9  17.5  17.4  17.4  17.5  17.6   0.0   0.0
 2003 269    41  18.6  18.1  17.6  17.3  17.2  17.3  17.4  17.5   0.0   0.0
 2003 270    42  18.4  18.0  17.5  17.2  17.1  17.2  17.4  17.5   0.0   0.0
 2003 271    43  17.7  17.3  17.0  16.8  16.8  17.0  17.3  17.4   0.0   0.0
 2003 272    44  17.4  17.0  16.7  16.6  16.7  16.9  17.2  17.3   0.0   0.0
 2003 273    45  17.9  17.5  17.1  16.9  16.9  17.1  17.3  17.4   0.0   0.0
 2003 274    46  19.3  18.7  18.1  17.6  17.4  17.4  17.5  17.5   0.0   0.0
 2003 275    47  19.3  18.7  18.1  17.6  17.4  17.4  17.5  17.5   0.0   0.0
 2003 276    48  20.0  19.3  18.5  18.0  17.7  17.5  17.6  17.6   0.0   0.0
 2003 277    49  20.4  19.7  18.8  18.1  17.8  17.6  17.6  17.6   0.0   0.0
 2003 278    50  20.6  19.9  18.9  18.3  17.9  17.7  17.6  17.6   0.0   0.0
 2003 279    51  19.8  19.1  18.3  17.8  17.5  17.4  17.5  17.5   0.0   0.0
 2003 280    52  20.0  19.3  18.5  17.9  17.6  17.5  17.5  17.6   0.0   0.0
 2003 281    53  21.0  20.2  19.2  18.4  18.0  17.7  17.7  17.7   0.0   0.0
 2003 282    54  21.8  20.9  19.7  18.8  18.3  17.9  17.8  17.7   0.0   0.0
 2003 283    55  20.2  19.5  18.6  18.0  17.7  17.5  17.5  17.5   0.0   0.0
 2003 284    56  19.2  18.6  17.9  17.5  17.3  17.2  17.3  17.4   0.0   0.0
 2003 285    57  17.8  17.4  17.0  16.7  16.7  16.9  17.1  17.2   0.0   0.0
 2003 286    58  16.8  16.5  16.2  16.2  16.3  16.6  16.9  17.1   0.0   0.0
 2003 287    59  16.9  16.6  16.3  16.2  16.3  16.6  16.9  17.1   0.0   0.0
 2003 288    60  19.2  18.6  17.9  17.4  17.2  17.2  17.3  17.4   0.0   0.0
 2003 289    61  22.0  21.1  19.8  18.9  18.3  17.9  17.7  17.7   0.0   0.0
 2003 290    62  24.6  23.3  21.6  20.2  19.3  18.5  18.1  18.0   0.0   0.0
 2003 291    63  26.9  25.3  23.2  21.4  20.2  19.1  18.5  18.2   0.0   0.0
 2003 292    64  27.0  25.4  23.2  21.4  20.2  19.1  18.5  18.2   0.0   0.0
 2003 293    65  25.9  24.4  22.5  20.8  19.8  18.8  18.3  18.1   0.0   0.0
 2003 294    66  24.6  23.3  21.6  20.2  19.2  18.5  18.1  17.9   0.0   0.0
 2003 295    67  23.5  22.3  20.8  19.6  18.8  18.2  17.9  17.8   0.0   0.0
 2003 296    68  22.6  21.6  20.2  19.1  18.5  18.0  17.8  17.7   0.0   0.0
 2003 297    69  23.8  22.6  21.0  19.7  18.9  18.2  17.9  17.8   0.0   0.0
 2003 298    70  24.8  23.4  21.7  20.2  19.3  18.5  18.1  17.9   0.0   0.0
 2003 299    71  25.2  23.8  22.0  20.5  19.5  18.6  18.1  18.0   0.0   0.0
 2003 300    72  24.7  23.4  21.6  20.2  19.3  18.5  18.0  17.9   0.0   0.0
 2003 301    73  24.1  22.8  21.2  19.9  19.0  18.3  17.9  17.8   0.0   0.0
 2003 302    74  23.2  22.0  20.6  19.4  18.6  18.0  17.8  17.7   0.0   0.0
 2003 303    75  24.3  23.0  21.3  20.0  19.1  18.3  18.0  17.8   0.0   0.0
 2003 304    76  23.2  22.1  20.6  19.4  18.6  18.0  17.8  17.7   0.0   0.0
 2003 305    77  22.8  21.7  20.3  19.2  18.5  17.9  17.7  17.6   0.0   0.0
 2003 306    78  22.1  21.1  19.8  18.8  18.2  17.7  17.6  17.5   0.0   0.0
 2003 307    79  21.1  20.3  19.2  18.3  17.8  17.5  17.4  17.4   0.0   0.0
 2003 308    80  19.4  18.8  18.0  17.5  17.2  17.1  17.1  17.2   0.0   0.0
 2003 309    81  20.3  19.6  18.6  17.9  17.5  17.3  17.3  17.3   0.0   0.0
 2003 310    82  21.7  20.8  19.6  18.6  18.0  17.6  17.5  17.5   0.0   0.0
 2003 311    83  23.2  22.0  20.6  19.4  18.6  18.0  17.7  17.6   0.0   0.0
 2003 312    84  24.6  23.3  21.6  20.1  19.1  18.3  17.9  17.8   0.0   0.0
 2003 313    85  25.9  24.4  22.4  20.7  19.6  18.6  18.1  17.9   0.0   0.0
 2003 314    86  27.0  25.3  23.2  21.3  20.0  18.9  18.3  18.0   0.0   0.0
 2003 315    87  28.3  26.4  24.0  21.9  20.5  19.2  18.5  18.2   0.0   0.0
 2003 316    88  27.0  25.4  23.2  21.4  20.1  18.9  18.3  18.1   0.0   0.0
 2003 317    89  25.3  23.9  22.1  20.5  19.4  18.5  18.0  17.8   0.0   0.0
 2003 318    90  24.1  22.9  21.3  19.9  19.0  18.2  17.8  17.7   0.0   0.0
 2003 319    91  23.8  22.6  21.1  19.7  18.8  18.1  17.8  17.7   0.0   0.0
 2003 320    92  21.7  20.8  19.7  18.7  18.0  17.6  17.4  17.4   0.0   0.0
 2003 321    93  22.6  21.6  20.2  19.1  18.4  17.8  17.6  17.5   0.0   0.0
 2003 322    94  22.4  21.4  20.1  19.0  18.3  17.7  17.5  17.5   0.0   0.0
 2003 323    95  22.8  21.8  20.4  19.2  18.5  17.9  17.6  17.5   0.0   0.0
 2003 324    96  21.4  20.5  19.4  18.5  17.9  17.5  17.3  17.3   0.0   0.0
 2003 325    97  22.0  21.1  19.9  18.8  18.2  17.6  17.4  17.4   0.0   0.0
 2003 326    98  23.4  22.3  20.8  19.5  18.7  18.0  17.7  17.6   0.0   0.0
 2003 327    99  26.4  24.9  22.8  21.1  19.8  18.7  18.1  17.9   0.0   0.0
 2003 328   100  25.5  24.1  22.3  20.6  19.5  18.5  18.0  17.8   0.0   0.0
 2003 329   101  26.7  25.1  23.1  21.2  20.0  18.8  18.2  17.9   0.0   0.0
 2003 330   102  27.2  25.6  23.4  21.5  20.2  18.9  18.3  18.0   0.0   0.0
 2003 331   103  26.6  25.1  23.1  21.2  20.0  18.8  18.2  17.9   0.0   0.0
 2003 332   104  25.2  23.9  22.1  20.5  19.4  18.4  17.9  17.8   0.0   0.0
 2003 333   105  26.9  25.3  23.2  21.4  20.1  18.9  18.2  17.9   0.0   0.0
 2003 334   106  26.0  24.6  22.6  20.9  19.7  18.6  18.0  17.8   0.0   0.0
 2003 335   107  25.6  24.2  22.3  20.7  19.6  18.5  18.0  17.8   0.0   0.0
 2003 336   108  24.8  23.5  21.8  20.3  19.2  18.3  17.8  17.7   0.0   0.0
 2003 337   109  25.1  23.8  22.0  20.5  19.4  18.4  17.9  17.7   0.0   0.0
 2003 338   110  24.7  23.4  21.7  20.2  19.2  18.3  17.8  17.7   0.0   0.0
 2003 339   111  25.3  23.9  22.1  20.6  19.5  18.4  17.9  17.7   0.0   0.0
 2003 340   112  25.2  23.9  22.1  20.5  19.4  18.4  17.9  17.7   0.0   0.0
 2003 341   113  25.4  24.0  22.2  20.6  19.5  18.5  17.9  17.7   0.0   0.0
 2003 342   114  24.3  23.1  21.5  20.1  19.1  18.2  17.8  17.6   0.0   0.0
 2003 343   115  23.5  22.5  21.0  19.7  18.8  18.0  17.6  17.5   0.0   0.0
 2003 344   116  23.9  22.8  21.3  19.9  18.9  18.1  17.7  17.6   0.0   0.0
 2003 345   117  23.9  22.8  21.3  19.9  19.0  18.1  17.7  17.6   0.0   0.0
 2003 346   118  23.6  22.5  21.0  19.7  18.8  18.0  17.6  17.5   0.0   0.0
 2003 347   119  23.8  22.7  21.2  19.8  18.9  18.1  17.7  17.5   0.0   0.0
 2003 348   120  24.7  23.5  21.8  20.3  19.3  18.3  17.8  17.6   0.0   0.0
 2003 349   121  23.8  22.7  21.2  19.9  18.9  18.1  17.7  17.5   0.0   0.0
 2003 350   122  23.0  22.1  20.7  19.5  18.7  17.9  17.6  17.5   0.0   0.0
 2003 351   123  23.1  22.1  20.7  19.5  18.7  17.9  17.6  17.5   0.0   0.0
 2003 352   124  23.6  22.6  21.1  19.8  18.9  18.1  17.6  17.5   0.0   0.0
 2003 353   125  23.8  22.8  21.3  19.9  19.0  18.1  17.7  17.5   0.0   0.0
 2003 354   126  24.1  23.0  21.5  20.1  19.1  18.2  17.7  17.6   0.0   0.0
 2003 355   127  25.6  24.3  22.5  20.9  19.7  18.6  18.0  17.7   0.0   0.0
 2003 356   128  25.5  24.2  22.5  20.9  19.7  18.6  18.0  17.7   0.0   0.0
 2003 357   129  24.9  23.8  22.1  20.6  19.5  18.5  17.9  17.7   0.0   0.0
 2003 358   130  24.4  23.3  21.7  20.3  19.3  18.3  17.8  17.6   0.0   0.0
 2003 359   131  25.3  24.1  22.4  20.8  19.6  18.5  17.9  17.7   0.0   0.0
 2003 360   132  25.3  24.1  22.4  20.8  19.6  18.5  17.9  17.7   0.0   0.0
 2003 361   133  25.8  24.5  22.7  21.0  19.8  18.7  18.0  17.8   0.0   0.0
 2003 362   134  25.5  24.2  22.5  20.9  19.7  18.6  18.0  17.7   0.0   0.0
 2003 363   135  25.3  24.1  22.4  20.8  19.7  18.6  17.9  17.7   0.0   0.0
 2003 364   136  24.9  23.8  22.2  20.7  19.6  18.5  17.9  17.7   0.0   0.0
 2003 365   137  23.8  22.8  21.4  20.1  19.1  18.2  17.7  17.5   0.0   0.0
 2004 001   138  24.1  23.1  21.6  20.2  19.2  18.3  17.7  17.6   0.0   0.0
 2004 002   139  25.1  23.9  22.2  20.7  19.6  18.5  17.9  17.7   0.0   0.0
 2004 003   140  26.2  24.9  23.0  21.3  20.0  18.8  18.1  17.8   0.0   0.0
 2004 004   141  26.7  25.3  23.3  21.5  20.2  18.9  18.2  17.9   0.0   0.0
 2004 005   142  28.3  26.7  24.4  22.4  20.8  19.3  18.4  18.0   0.0   0.0
 2004 006   143  29.5  27.7  25.3  23.0  21.3  19.6  18.6  18.2   0.0   0.0
 2004 007   144  30.3  28.4  25.8  23.4  21.6  19.8  18.7  18.3   0.0   0.0
 2004 008   145  30.5  28.7  26.0  23.5  21.7  19.9  18.8  18.3   0.0   0.0
 2004 009   146  30.7  28.8  26.1  23.6  21.8  19.9  18.8  18.3   0.0   0.0
 2004 010   147  30.4  28.6  25.9  23.5  21.7  19.9  18.7  18.3   0.0   0.0
 2004 011   148  29.3  27.6  25.2  22.9  21.3  19.6  18.6  18.1   0.0   0.0
 2004 012   149  28.3  26.8  24.5  22.4  20.9  19.4  18.4  18.0   0.0   0.0
 2004 013   150  27.6  26.2  24.1  22.1  20.7  19.2  18.3  18.0   0.0   0.0
 2004 014   151  27.3  25.9  23.9  22.0  20.5  19.1  18.3  17.9   0.0   0.0
 2004 015   152  26.5  25.2  23.3  21.6  20.3  18.9  18.2  17.9   0.0   0.0
 2004 016   153  26.4  25.1  23.3  21.5  20.2  18.9  18.2  17.8   0.0   0.0
 2004 017   154  26.4  25.1  23.3  21.5  20.2  18.9  18.2  17.8   0.0   0.0
 2004 018   155  26.2  24.9  23.1  21.4  20.2  18.9  18.1  17.8   0.0   0.0
 2004 019   156  25.1  24.0  22.4  20.9  19.8  18.6  18.0  17.7   0.0   0.0
 2004 020   157  25.2  24.1  22.5  21.0  19.8  18.7  18.0  17.7   0.0   0.0
 2004 021   158  25.6  24.4  22.8  21.2  20.0  18.8  18.1  17.8   0.0   0.0
 2004 022   159  26.2  24.9  23.2  21.5  20.2  18.9  18.1  17.8   0.0   0.0
 2004 023   160  26.7  25.4  23.6  21.8  20.5  19.1  18.3  17.9   0.0   0.0
 2004 024   161  28.0  26.5  24.5  22.5  21.0  19.4  18.5  18.1   0.0   0.0
 2004 025   162  28.5  27.0  24.8  22.7  21.2  19.5  18.5  18.1   0.0   0.0
 2004 026   163  29.0  27.5  25.2  23.0  21.4  19.7  18.6  18.2   0.0   0.0
 2004 027   164  29.2  27.6  25.3  23.1  21.4  19.7  18.7  18.2   0.0   0.0
 2004 028   165  29.2  27.6  25.3  23.1  21.4  19.7  18.6  18.2   0.0   0.0
 2004 029   166  29.7  28.0  25.7  23.4  21.7  19.9  18.8  18.3   0.0   0.0

*DSSAT Cropping System Model Ver. 4.0.2.000               Aug 19, 2016; 14:29:32

*RUN   5        : UYMZ                    
 MODEL          : MZCER040 - Maize           
 EXPERIMENT     : UYMZ0215 MZ    late to create DSS                             
 TREATMENT  1   : UYMZ                    

@YEAR DOY   DAS  TS1D  TS2D  TS3D  TS4D  TS5D  TS6D  TS7D  TS8D  TS9D  TS10
 2004 228     0  22.3  21.5  20.5  19.8  19.3  18.9  18.5  18.3   0.0   0.0
 2004 229     1  21.3  20.6  19.8  19.3  18.9  18.6  18.3  18.2   0.0   0.0
 2004 230     2  20.2  19.7  19.1  18.7  18.5  18.3  18.2  18.1   0.0   0.0
 2004 231     3  18.6  18.3  18.0  17.9  17.9  17.9  17.9  17.9   0.0   0.0
 2004 232     4  16.9  16.8  16.8  17.0  17.2  17.5  17.6  17.7   0.0   0.0
 2004 233     5  15.3  15.4  15.7  16.1  16.6  17.0  17.4  17.5   0.0   0.0
 2004 234     6  13.5  13.8  14.5  15.2  15.8  16.6  17.1  17.3   0.0   0.0
 2004 235     7  11.5  12.1  13.1  14.2  15.1  16.1  16.7  17.0   0.0   0.0
 2004 236     8  11.1  11.7  12.8  13.9  14.9  15.9  16.7  17.0   0.0   0.0
 2004 237     9  11.6  12.2  13.1  14.2  15.1  16.1  16.7  17.0   0.0   0.0
 2004 238    10  12.1  12.7  13.5  14.4  15.2  16.2  16.8  17.1   0.0   0.0
 2004 239    11  13.6  14.0  14.5  15.2  15.8  16.5  17.0  17.2   0.0   0.0
 2004 240    12  15.6  15.6  15.8  16.2  16.5  17.0  17.3  17.5   0.0   0.0
 2004 241    13  16.9  16.7  16.7  16.8  17.0  17.3  17.5  17.6   0.0   0.0
 2004 242    14  17.8  17.6  17.3  17.3  17.4  17.5  17.6  17.7   0.0   0.0
 2004 243    15  18.7  18.3  17.9  17.7  17.7  17.7  17.8  17.8   0.0   0.0
 2004 244    16  20.2  19.6  18.9  18.5  18.2  18.1  18.0  17.9   0.0   0.0
 2004 245    17  21.9  21.1  20.1  19.3  18.9  18.5  18.3  18.1   0.0   0.0
 2004 246    18  21.7  20.9  19.9  19.2  18.8  18.4  18.2  18.1   0.0   0.0
 2004 247    19  21.1  20.4  19.5  18.9  18.5  18.3  18.1  18.0   0.0   0.0
 2004 248    20  21.8  20.9  20.0  19.2  18.8  18.4  18.2  18.1   0.0   0.0
 2004 249    21  22.8  21.8  20.6  19.7  19.1  18.6  18.3  18.2   0.0   0.0
 2004 250    22  23.7  22.6  21.3  20.2  19.5  18.9  18.5  18.3   0.0   0.0
 2004 251    23  24.3  23.1  21.7  20.5  19.7  19.0  18.6  18.3   0.0   0.0
 2004 252    24  22.8  21.8  20.6  19.7  19.1  18.6  18.3  18.2   0.0   0.0
 2004 253    25  20.3  19.7  18.9  18.4  18.1  18.0  17.9  17.9   0.0   0.0
 2004 254    26  17.2  17.0  16.8  16.8  16.9  17.2  17.4  17.5   0.0   0.0
 2004 255    27  13.8  14.0  14.4  15.0  15.6  16.3  16.8  17.1   0.0   0.0
 2004 256    28  12.4  12.8  13.5  14.3  15.0  15.9  16.6  16.9   0.0   0.0
 2004 257    29  13.2  13.4  14.0  14.6  15.3  16.1  16.7  17.0   0.0   0.0
 2004 258    30  14.4  14.6  14.8  15.3  15.8  16.4  16.9  17.1   0.0   0.0
 2004 259    31  15.2  15.2  15.3  15.6  16.0  16.6  17.0  17.2   0.0   0.0
 2004 260    32  15.6  15.6  15.6  15.9  16.2  16.7  17.1  17.3   0.0   0.0
 2004 261    33  16.7  16.5  16.3  16.4  16.6  16.9  17.2  17.4   0.0   0.0
 2004 262    34  18.7  18.2  17.7  17.4  17.3  17.4  17.5  17.6   0.0   0.0
 2004 263    35  19.4  18.8  18.2  17.8  17.6  17.6  17.6  17.7   0.0   0.0
 2004 264    36  19.0  18.5  17.9  17.6  17.4  17.5  17.5  17.6   0.0   0.0
 2004 265    37  18.8  18.3  17.8  17.5  17.4  17.4  17.5  17.6   0.0   0.0
 2004 266    38  18.7  18.2  17.7  17.4  17.3  17.4  17.5  17.5   0.0   0.0
 2004 267    39  17.7  17.4  17.0  16.9  16.9  17.1  17.3  17.4   0.0   0.0
 2004 268    40  17.8  17.4  17.1  16.9  16.9  17.1  17.3  17.4   0.0   0.0
 2004 269    41  19.5  18.9  18.2  17.8  17.6  17.5  17.6  17.6   0.0   0.0
 2004 270    42  21.0  20.2  19.2  18.5  18.1  17.9  17.8  17.8   0.0   0.0
 2004 271    43  21.4  20.5  19.5  18.7  18.3  18.0  17.8  17.8   0.0   0.0
 2004 272    44  21.4  20.5  19.5  18.7  18.2  17.9  17.8  17.8   0.0   0.0
 2004 273    45  20.3  19.6  18.7  18.1  17.8  17.7  17.6  17.7   0.0   0.0
 2004 274    46  18.5  18.1  17.5  17.2  17.1  17.2  17.4  17.4   0.0   0.0
 2004 275    47  18.3  17.9  17.4  17.1  17.0  17.1  17.3  17.4   0.0   0.0
 2004 276    48  18.6  18.1  17.6  17.2  17.1  17.2  17.3  17.4   0.0   0.0
 2004 277    49  17.7  17.3  16.9  16.8  16.8  16.9  17.2  17.3   0.0   0.0
 2004 278    50  17.7  17.3  16.9  16.7  16.8  16.9  17.2  17.3   0.0   0.0
 2004 279    51  18.6  18.1  17.6  17.2  17.1  17.2  17.3  17.4   0.0   0.0
 2004 280    52  18.1  17.6  17.2  16.9  16.9  17.0  17.2  17.3   0.0   0.0
 2004 281    53  18.0  17.6  17.1  16.9  16.8  17.0  17.2  17.3   0.0   0.0
 2004 282    54  19.5  18.9  18.1  17.6  17.4  17.3  17.4  17.5   0.0   0.0
 2004 283    55  20.8  20.0  19.0  18.3  17.9  17.6  17.6  17.6   0.0   0.0
 2004 284    56  21.2  20.3  19.3  18.5  18.0  17.7  17.7  17.6   0.0   0.0
 2004 285    57  21.7  20.8  19.6  18.7  18.2  17.9  17.7  17.7   0.0   0.0
 2004 286    58  20.7  19.9  18.9  18.2  17.8  17.6  17.6  17.6   0.0   0.0
 2004 287    59  19.8  19.2  18.4  17.8  17.5  17.4  17.4  17.5   0.0   0.0
 2004 288    60  19.3  18.7  18.0  17.5  17.3  17.2  17.3  17.4   0.0   0.0
 2004 289    61  20.3  19.6  18.7  18.0  17.6  17.5  17.5  17.5   0.0   0.0
 2004 290    62  20.2  19.5  18.6  17.9  17.6  17.4  17.4  17.5   0.0   0.0
 2004 291    63  21.7  20.8  19.6  18.7  18.2  17.8  17.7  17.6   0.0   0.0
 2004 292    64  22.2  21.2  20.0  19.0  18.4  17.9  17.7  17.7   0.0   0.0
 2004 293    65  22.1  21.1  19.9  18.9  18.3  17.9  17.7  17.7   0.0   0.0
 2004 294    66  21.0  20.1  19.1  18.3  17.8  17.6  17.5  17.5   0.0   0.0
 2004 295    67  21.4  20.5  19.4  18.5  18.0  17.7  17.6  17.6   0.0   0.0
 2004 296    68  22.0  21.0  19.8  18.8  18.2  17.8  17.7  17.6   0.0   0.0
 2004 297    69  21.7  20.7  19.6  18.6  18.1  17.7  17.6  17.6   0.0   0.0
 2004 298    70  21.4  20.5  19.4  18.5  18.0  17.6  17.5  17.5   0.0   0.0
 2004 299    71  21.6  20.7  19.5  18.6  18.1  17.7  17.6  17.5   0.0   0.0
 2004 300    72  21.2  20.4  19.3  18.4  17.9  17.6  17.5  17.5   0.0   0.0
 2004 301    73  19.5  18.9  18.1  17.5  17.2  17.1  17.2  17.3   0.0   0.0
 2004 302    74  20.5  19.7  18.7  18.0  17.6  17.4  17.4  17.4   0.0   0.0
 2004 303    75  22.3  21.3  20.0  18.9  18.3  17.8  17.6  17.6   0.0   0.0
 2004 304    76  22.0  21.1  19.8  18.8  18.2  17.7  17.6  17.6   0.0   0.0
 2004 305    77  22.3  21.3  20.0  18.9  18.3  17.8  17.6  17.6   0.0   0.0
 2004 306    78  23.7  22.5  21.0  19.7  18.8  18.2  17.8  17.7   0.0   0.0
 2004 307    79  24.7  23.4  21.6  20.2  19.2  18.4  18.0  17.8   0.0   0.0
 2004 308    80  23.4  22.3  20.8  19.5  18.7  18.1  17.8  17.7   0.0   0.0
 2004 309    81  23.6  22.5  20.9  19.6  18.8  18.1  17.8  17.7   0.0   0.0
 2004 310    82  22.4  21.4  20.1  19.0  18.3  17.8  17.6  17.6   0.0   0.0
 2004 311    83  20.9  20.1  19.0  18.2  17.7  17.4  17.3  17.4   0.0   0.0
 2004 312    84  19.2  18.6  17.9  17.4  17.1  17.0  17.1  17.2   0.0   0.0
 2004 313    85  19.5  18.9  18.1  17.5  17.2  17.0  17.1  17.2   0.0   0.0
 2004 314    86  19.2  18.6  17.9  17.3  17.1  17.0  17.0  17.1   0.0   0.0
 2004 315    87  19.9  19.2  18.3  17.7  17.3  17.1  17.1  17.2   0.0   0.0
 2004 316    88  20.0  19.3  18.4  17.8  17.4  17.1  17.2  17.2   0.0   0.0
 2004 317    89  19.7  19.1  18.3  17.6  17.3  17.1  17.1  17.2   0.0   0.0
 2004 318    90  19.1  18.5  17.8  17.3  17.0  16.9  17.0  17.1   0.0   0.0
 2004 319    91  19.5  18.9  18.1  17.5  17.2  17.0  17.1  17.2   0.0   0.0
 2004 320    92  20.4  19.7  18.7  18.0  17.5  17.2  17.2  17.3   0.0   0.0
 2004 321    93  21.2  20.4  19.3  18.4  17.9  17.4  17.3  17.3   0.0   0.0
 2004 322    94  22.0  21.0  19.8  18.8  18.1  17.6  17.5  17.4   0.0   0.0
 2004 323    95  22.4  21.4  20.1  19.0  18.3  17.7  17.5  17.5   0.0   0.0
 2004 324    96  22.2  21.3  20.0  18.9  18.2  17.7  17.5  17.4   0.0   0.0
 2004 325    97  21.5  20.6  19.5  18.6  18.0  17.5  17.4  17.4   0.0   0.0
 2004 326    98  21.7  20.8  19.6  18.6  18.0  17.5  17.4  17.4   0.0   0.0
 2004 327    99  22.3  21.4  20.1  19.0  18.3  17.7  17.5  17.4   0.0   0.0
 2004 328   100  24.1  22.9  21.3  19.9  19.0  18.2  17.8  17.6   0.0   0.0
 2004 329   101  25.0  23.7  21.9  20.3  19.3  18.4  17.9  17.7   0.0   0.0
 2004 330   102  25.4  24.1  22.2  20.6  19.5  18.5  18.0  17.8   0.0   0.0
 2004 331   103  25.8  24.4  22.4  20.8  19.6  18.6  18.0  17.8   0.0   0.0
 2004 332   104  25.5  24.1  22.2  20.6  19.5  18.5  18.0  17.8   0.0   0.0
 2004 333   105  24.4  23.1  21.5  20.0  19.0  18.2  17.8  17.6   0.0   0.0
 2004 334   106  24.6  23.4  21.7  20.2  19.2  18.3  17.8  17.7   0.0   0.0
 2004 335   107  25.1  23.7  21.9  20.4  19.3  18.4  17.9  17.7   0.0   0.0
 2004 336   108  25.6  24.2  22.3  20.7  19.5  18.5  18.0  17.8   0.0   0.0
 2004 337   109  27.1  25.5  23.4  21.5  20.1  18.9  18.2  17.9   0.0   0.0
 2004 338   110  28.3  26.5  24.2  22.1  20.6  19.2  18.4  18.1   0.0   0.0
 2004 339   111  28.5  26.8  24.4  22.2  20.7  19.2  18.4  18.1   0.0   0.0
 2004 340   112  29.4  27.5  25.0  22.6  21.0  19.4  18.5  18.2   0.0   0.0
 2004 341   113  29.2  27.3  24.8  22.5  20.9  19.4  18.5  18.2   0.0   0.0
 2004 342   114  27.6  25.9  23.7  21.7  20.3  19.0  18.3  18.0   0.0   0.0
 2004 343   115  26.6  25.1  23.1  21.2  19.9  18.8  18.1  17.9   0.0   0.0
 2004 344   116  26.0  24.6  22.7  21.0  19.7  18.6  18.0  17.8   0.0   0.0
 2004 345   117  25.1  23.8  22.1  20.5  19.4  18.4  17.9  17.7   0.0   0.0
 2004 346   118  24.6  23.3  21.7  20.2  19.2  18.2  17.8  17.6   0.0   0.0
 2004 347   119  25.2  23.9  22.1  20.5  19.4  18.4  17.9  17.7   0.0   0.0
 2004 348   120  25.8  24.4  22.5  20.8  19.6  18.5  18.0  17.7   0.0   0.0
 2004 349   121  26.6  25.1  23.1  21.3  20.0  18.7  18.1  17.8   0.0   0.0
 2004 350   122  27.7  26.1  23.9  21.8  20.4  19.0  18.3  18.0   0.0   0.0
 2004 351   123  28.2  26.5  24.2  22.1  20.6  19.2  18.4  18.0   0.0   0.0
 2004 352   124  27.7  26.1  23.9  21.9  20.4  19.1  18.3  18.0   0.0   0.0
 2004 353   125  27.3  25.8  23.6  21.7  20.3  19.0  18.2  17.9   0.0   0.0
 2004 354   126  26.6  25.2  23.2  21.3  20.0  18.8  18.1  17.8   0.0   0.0
 2004 355   127  25.5  24.2  22.4  20.8  19.6  18.5  17.9  17.7   0.0   0.0
 2004 356   128  25.2  23.9  22.2  20.6  19.5  18.4  17.9  17.7   0.0   0.0
 2004 357   129  25.3  24.1  22.3  20.7  19.6  18.5  17.9  17.7   0.0   0.0
 2004 358   130  24.9  23.7  22.0  20.5  19.4  18.4  17.8  17.6   0.0   0.0
 2004 359   131  25.2  24.0  22.3  20.7  19.5  18.5  17.9  17.7   0.0   0.0
 2004 360   132  25.5  24.2  22.5  20.8  19.7  18.6  17.9  17.7   0.0   0.0
 2004 361   133  25.6  24.4  22.6  20.9  19.7  18.6  18.0  17.7   0.0   0.0
 2004 362   134  25.8  24.5  22.7  21.0  19.8  18.6  18.0  17.7   0.0   0.0
 2004 363   135  26.3  25.0  23.0  21.3  20.0  18.8  18.1  17.8   0.0   0.0
 2004 364   136  26.3  24.9  23.0  21.3  20.0  18.7  18.1  17.8   0.0   0.0
 2004 365   137  26.8  25.4  23.4  21.6  20.2  18.9  18.2  17.9   0.0   0.0
 2004 366   138  28.0  26.4  24.2  22.2  20.7  19.2  18.3  18.0   0.0   0.0
 2005 001   139  28.6  26.9  24.6  22.4  20.9  19.3  18.4  18.1   0.0   0.0
 2005 002   140  29.1  27.4  24.9  22.7  21.0  19.4  18.5  18.1   0.0   0.0
 2005 003   141  29.5  27.7  25.2  22.9  21.2  19.5  18.5  18.1   0.0   0.0
 2005 004   142  29.9  28.0  25.5  23.1  21.4  19.7  18.6  18.2   0.0   0.0
 2005 005   143  30.1  28.2  25.6  23.3  21.5  19.7  18.7  18.2   0.0   0.0
 2005 006   144  31.0  29.0  26.3  23.7  21.8  20.0  18.8  18.3   0.0   0.0
 2005 007   145  31.9  29.8  26.9  24.2  22.2  20.2  19.0  18.4   0.0   0.0
 2005 008   146  32.9  30.7  27.6  24.7  22.6  20.4  19.1  18.5   0.0   0.0
 2005 009   147  32.1  30.0  27.1  24.3  22.3  20.3  19.0  18.5   0.0   0.0
 2005 010   148  31.6  29.5  26.7  24.1  22.1  20.1  18.9  18.4   0.0   0.0
 2005 011   149  31.1  29.1  26.4  23.8  21.9  20.0  18.8  18.3   0.0   0.0
 2005 012   150  30.7  28.8  26.2  23.7  21.8  19.9  18.8  18.3   0.0   0.0
 2005 013   151  30.3  28.4  25.9  23.4  21.6  19.8  18.7  18.2   0.0   0.0
 2005 014   152  31.7  29.7  26.8  24.1  22.2  20.2  18.9  18.4   0.0   0.0
 2005 015   153  31.5  29.5  26.7  24.1  22.1  20.2  18.9  18.4   0.0   0.0
 2005 016   154  30.9  29.0  26.3  23.8  21.9  20.0  18.8  18.3   0.0   0.0
 2005 017   155  30.5  28.7  26.1  23.6  21.8  19.9  18.8  18.3   0.0   0.0
 2005 018   156  30.5  28.7  26.1  23.6  21.8  19.9  18.8  18.3   0.0   0.0
 2005 019   157  30.0  28.2  25.7  23.4  21.6  19.8  18.7  18.2   0.0   0.0
 2005 020   158  29.3  27.7  25.3  23.0  21.3  19.6  18.6  18.2   0.0   0.0
 2005 021   159  29.3  27.7  25.3  23.1  21.4  19.7  18.6  18.2   0.0   0.0
 2005 022   160  29.7  28.0  25.5  23.3  21.5  19.8  18.7  18.2   0.0   0.0
 2005 023   161  30.4  28.6  26.1  23.6  21.8  20.0  18.8  18.3   0.0   0.0
 2005 024   162  31.1  29.2  26.5  24.0  22.1  20.1  18.9  18.4   0.0   0.0

*DSSAT Cropping System Model Ver. 4.0.2.000               Aug 19, 2016; 14:29:32

*RUN   6        : UYMZ                    
 MODEL          : MZCER040 - Maize           
 EXPERIMENT     : UYMZ0215 MZ    late to create DSS                             
 TREATMENT  1   : UYMZ                    

@YEAR DOY   DAS  TS1D  TS2D  TS3D  TS4D  TS5D  TS6D  TS7D  TS8D  TS9D  TS10
 2005 228     0  14.8  15.0  15.4  16.0  16.5  17.0  17.3  17.5   0.0   0.0
 2005 229     1  15.3  15.5  15.8  16.2  16.7  17.1  17.4  17.5   0.0   0.0
 2005 230     2  14.9  15.1  15.5  16.0  16.5  17.0  17.3  17.5   0.0   0.0
 2005 231     3  15.3  15.4  15.7  16.2  16.6  17.1  17.4  17.5   0.0   0.0
 2005 232     4  16.1  16.1  16.3  16.6  16.9  17.3  17.5  17.6   0.0   0.0
 2005 233     5  15.4  15.5  15.8  16.2  16.6  17.1  17.4  17.5   0.0   0.0
 2005 234     6  15.9  16.0  16.1  16.4  16.8  17.2  17.4  17.5   0.0   0.0
 2005 235     7  17.2  17.0  17.0  17.1  17.2  17.5  17.6  17.7   0.0   0.0
 2005 236     8  16.6  16.6  16.6  16.8  17.0  17.3  17.5  17.6   0.0   0.0
 2005 237     9  15.8  15.8  16.0  16.3  16.7  17.1  17.4  17.5   0.0   0.0
 2005 238    10  15.5  15.6  15.8  16.2  16.5  17.0  17.3  17.5   0.0   0.0
 2005 239    11  15.8  15.8  16.0  16.3  16.6  17.1  17.4  17.5   0.0   0.0
 2005 240    12  15.3  15.3  15.6  16.0  16.4  16.9  17.3  17.4   0.0   0.0
 2005 241    13  15.1  15.2  15.5  15.9  16.3  16.8  17.2  17.4   0.0   0.0
 2005 242    14  14.8  14.9  15.3  15.7  16.2  16.7  17.2  17.3   0.0   0.0
 2005 243    15  13.9  14.1  14.6  15.2  15.8  16.5  17.0  17.2   0.0   0.0
 2005 244    16  12.2  12.7  13.5  14.3  15.1  16.1  16.7  17.0   0.0   0.0
 2005 245    17  11.9  12.4  13.2  14.2  15.0  16.0  16.6  17.0   0.0   0.0
 2005 246    18  12.2  12.6  13.4  14.3  15.1  16.0  16.7  17.0   0.0   0.0
 2005 247    19  12.5  12.9  13.6  14.4  15.2  16.1  16.7  17.0   0.0   0.0
 2005 248    20  13.2  13.5  14.1  14.8  15.4  16.2  16.8  17.1   0.0   0.0
 2005 249    21  14.0  14.2  14.7  15.2  15.8  16.4  16.9  17.2   0.0   0.0
 2005 250    22  15.0  15.1  15.3  15.7  16.1  16.7  17.1  17.3   0.0   0.0
 2005 251    23  16.2  16.1  16.1  16.3  16.6  17.0  17.3  17.4   0.0   0.0
 2005 252    24  16.9  16.7  16.6  16.6  16.8  17.1  17.4  17.5   0.0   0.0
 2005 253    25  17.2  16.9  16.8  16.8  16.9  17.2  17.4  17.5   0.0   0.0
 2005 254    26  16.3  16.2  16.2  16.3  16.6  16.9  17.2  17.4   0.0   0.0
 2005 255    27  15.0  15.0  15.2  15.6  16.0  16.6  17.0  17.2   0.0   0.0
 2005 256    28  13.2  13.5  14.0  14.7  15.3  16.1  16.7  17.0   0.0   0.0
 2005 257    29  11.5  12.0  12.9  13.8  14.6  15.7  16.4  16.8   0.0   0.0
 2005 258    30  10.3  11.0  12.0  13.1  14.1  15.3  16.2  16.6   0.0   0.0
 2005 259    31  10.6  11.2  12.2  13.3  14.2  15.4  16.2  16.7   0.0   0.0
 2005 260    32  11.1  11.7  12.6  13.6  14.4  15.5  16.3  16.7   0.0   0.0
 2005 261    33  11.8  12.3  13.0  13.9  14.7  15.7  16.4  16.8   0.0   0.0
 2005 262    34  13.5  13.7  14.1  14.7  15.3  16.1  16.7  17.0   0.0   0.0
 2005 263    35  15.0  15.0  15.2  15.5  15.9  16.5  16.9  17.1   0.0   0.0
 2005 264    36  16.1  16.0  15.9  16.1  16.3  16.7  17.1  17.3   0.0   0.0
 2005 265    37  17.7  17.4  17.0  16.9  16.9  17.1  17.3  17.4   0.0   0.0
 2005 266    38  19.7  19.1  18.4  17.9  17.7  17.6  17.6  17.7   0.0   0.0
 2005 267    39  20.0  19.4  18.6  18.1  17.8  17.7  17.7  17.7   0.0   0.0
 2005 268    40  20.2  19.5  18.7  18.1  17.9  17.7  17.7  17.7   0.0   0.0
 2005 269    41  19.5  18.9  18.2  17.8  17.6  17.5  17.6  17.6   0.0   0.0
 2005 270    42  18.6  18.1  17.6  17.3  17.2  17.3  17.4  17.5   0.0   0.0
 2005 271    43  18.1  17.6  17.2  17.0  17.0  17.1  17.3  17.4   0.0   0.0
 2005 272    44  18.4  18.0  17.5  17.2  17.1  17.2  17.4  17.4   0.0   0.0
 2005 273    45  18.3  17.8  17.4  17.1  17.0  17.1  17.3  17.4   0.0   0.0
 2005 274    46  19.0  18.5  17.9  17.5  17.3  17.3  17.4  17.5   0.0   0.0
 2005 275    47  20.1  19.4  18.6  18.0  17.7  17.6  17.6  17.6   0.0   0.0
 2005 276    48  19.7  19.0  18.3  17.8  17.5  17.5  17.5  17.5   0.0   0.0
 2005 277    49  18.9  18.4  17.8  17.4  17.2  17.2  17.4  17.4   0.0   0.0
 2005 278    50  18.4  17.9  17.4  17.1  17.0  17.1  17.3  17.4   0.0   0.0
 2005 279    51  17.9  17.5  17.1  16.8  16.8  17.0  17.2  17.3   0.0   0.0
 2005 280    52  16.9  16.6  16.4  16.3  16.4  16.7  17.0  17.2   0.0   0.0
 2005 281    53  16.7  16.5  16.2  16.2  16.3  16.6  17.0  17.2   0.0   0.0
 2005 282    54  17.3  16.9  16.6  16.5  16.5  16.8  17.0  17.2   0.0   0.0
 2005 283    55  18.4  17.9  17.3  17.0  16.9  17.0  17.2  17.3   0.0   0.0
 2005 284    56  19.1  18.5  17.9  17.4  17.2  17.2  17.3  17.4   0.0   0.0
 2005 285    57  20.9  20.0  19.0  18.3  17.9  17.6  17.6  17.6   0.0   0.0
 2005 286    58  21.4  20.5  19.4  18.6  18.1  17.8  17.7  17.6   0.0   0.0
 2005 287    59  21.3  20.4  19.4  18.5  18.0  17.7  17.6  17.6   0.0   0.0
 2005 288    60  20.4  19.7  18.7  18.1  17.7  17.5  17.5  17.5   0.0   0.0
 2005 289    61  19.3  18.7  18.0  17.5  17.3  17.2  17.3  17.4   0.0   0.0
 2005 290    62  16.9  16.6  16.3  16.2  16.3  16.6  16.9  17.1   0.0   0.0
 2005 291    63  17.1  16.7  16.4  16.3  16.4  16.6  16.9  17.1   0.0   0.0
 2005 292    64  18.3  17.8  17.3  16.9  16.8  16.9  17.1  17.2   0.0   0.0
 2005 293    65  20.6  19.8  18.9  18.1  17.7  17.5  17.5  17.5   0.0   0.0
 2005 294    66  22.5  21.4  20.1  19.1  18.4  17.9  17.7  17.7   0.0   0.0
 2005 295    67  24.9  23.5  21.8  20.3  19.4  18.5  18.1  18.0   0.0   0.0
 2005 296    68  24.1  22.8  21.2  19.9  19.0  18.3  18.0  17.9   0.0   0.0
 2005 297    69  22.1  21.2  19.9  18.9  18.3  17.8  17.7  17.6   0.0   0.0
 2005 298    70  20.3  19.6  18.7  18.0  17.6  17.4  17.4  17.4   0.0   0.0
 2005 299    71  19.4  18.8  18.1  17.5  17.2  17.1  17.2  17.3   0.0   0.0
 2005 300    72  18.5  18.0  17.4  17.0  16.8  16.9  17.0  17.2   0.0   0.0
 2005 301    73  18.6  18.1  17.4  17.0  16.9  16.9  17.1  17.2   0.0   0.0
 2005 302    74  19.0  18.4  17.7  17.2  17.0  17.0  17.1  17.2   0.0   0.0
 2005 303    75  18.7  18.2  17.5  17.1  16.9  16.9  17.1  17.2   0.0   0.0
 2005 304    76  18.1  17.6  17.1  16.8  16.7  16.7  16.9  17.1   0.0   0.0
 2005 305    77  18.0  17.5  17.0  16.7  16.6  16.7  16.9  17.1   0.0   0.0
 2005 306    78  19.3  18.7  17.9  17.4  17.1  17.0  17.1  17.2   0.0   0.0
 2005 307    79  21.3  20.4  19.3  18.4  17.9  17.5  17.4  17.5   0.0   0.0
 2005 308    80  22.8  21.7  20.3  19.2  18.5  17.9  17.7  17.6   0.0   0.0
 2005 309    81  22.9  21.8  20.4  19.2  18.5  17.9  17.7  17.6   0.0   0.0
 2005 310    82  22.6  21.5  20.2  19.1  18.4  17.8  17.6  17.6   0.0   0.0
 2005 311    83  21.5  20.6  19.4  18.5  18.0  17.6  17.4  17.4   0.0   0.0
 2005 312    84  20.0  19.3  18.4  17.8  17.4  17.2  17.2  17.3   0.0   0.0
 2005 313    85  19.4  18.7  18.0  17.4  17.1  17.0  17.1  17.2   0.0   0.0
 2005 314    86  20.3  19.5  18.6  17.9  17.5  17.2  17.2  17.3   0.0   0.0
 2005 315    87  20.8  20.0  19.0  18.2  17.7  17.4  17.3  17.3   0.0   0.0
 2005 316    88  22.2  21.2  19.9  18.9  18.2  17.7  17.5  17.5   0.0   0.0
 2005 317    89  23.6  22.4  20.9  19.6  18.7  18.0  17.7  17.6   0.0   0.0
 2005 318    90  24.8  23.5  21.7  20.2  19.2  18.3  17.9  17.8   0.0   0.0
 2005 319    91  25.8  24.3  22.4  20.7  19.6  18.6  18.1  17.9   0.0   0.0
 2005 320    92  26.0  24.5  22.5  20.8  19.7  18.6  18.1  17.9   0.0   0.0
 2005 321    93  25.8  24.4  22.4  20.7  19.6  18.6  18.1  17.9   0.0   0.0
 2005 322    94  25.1  23.7  21.9  20.4  19.3  18.4  17.9  17.8   0.0   0.0
 2005 323    95  25.1  23.7  21.9  20.4  19.3  18.4  17.9  17.8   0.0   0.0
 2005 324    96  25.5  24.1  22.2  20.6  19.5  18.5  18.0  17.8   0.0   0.0
 2005 325    97  27.2  25.5  23.3  21.4  20.1  18.9  18.2  18.0   0.0   0.0
 2005 326    98  28.8  26.9  24.4  22.2  20.7  19.3  18.5  18.2   0.0   0.0
 2005 327    99  30.2  28.1  25.4  23.0  21.3  19.6  18.7  18.3   0.0   0.0
 2005 328   100  29.8  27.9  25.2  22.8  21.1  19.6  18.6  18.3   0.0   0.0
 2005 329   101  29.5  27.6  25.0  22.6  21.0  19.5  18.6  18.2   0.0   0.0
 2005 330   102  29.0  27.1  24.6  22.4  20.8  19.3  18.5  18.2   0.0   0.0
 2005 331   103  28.5  26.7  24.3  22.1  20.6  19.2  18.4  18.1   0.0   0.0
 2005 332   104  28.7  26.9  24.4  22.2  20.7  19.2  18.4  18.1   0.0   0.0
 2005 333   105  29.8  27.9  25.2  22.8  21.1  19.5  18.6  18.2   0.0   0.0
 2005 334   106  30.1  28.1  25.4  22.9  21.2  19.6  18.7  18.3   0.0   0.0
 2005 335   107  28.9  27.1  24.6  22.3  20.8  19.3  18.5  18.1   0.0   0.0
 2005 336   108  27.4  25.8  23.6  21.6  20.2  18.9  18.2  18.0   0.0   0.0
 2005 337   109  27.1  25.5  23.3  21.4  20.1  18.8  18.2  17.9   0.0   0.0
 2005 338   110  25.2  23.9  22.1  20.5  19.4  18.4  17.9  17.7   0.0   0.0
 2005 339   111  24.3  23.1  21.5  20.1  19.1  18.2  17.8  17.6   0.0   0.0
 2005 340   112  23.9  22.8  21.2  19.9  18.9  18.1  17.7  17.6   0.0   0.0
 2005 341   113  23.7  22.6  21.1  19.8  18.8  18.0  17.7  17.5   0.0   0.0
 2005 342   114  23.4  22.3  20.8  19.6  18.7  18.0  17.6  17.5   0.0   0.0
 2005 343   115  23.2  22.2  20.7  19.5  18.6  17.9  17.6  17.5   0.0   0.0
 2005 344   116  22.7  21.7  20.4  19.2  18.5  17.8  17.5  17.4   0.0   0.0
 2005 345   117  22.9  21.9  20.5  19.4  18.5  17.8  17.5  17.4   0.0   0.0
 2005 346   118  23.5  22.4  21.0  19.7  18.8  18.0  17.6  17.5   0.0   0.0
 2005 347   119  23.4  22.3  20.9  19.6  18.7  18.0  17.6  17.5   0.0   0.0
 2005 348   120  24.6  23.4  21.8  20.3  19.2  18.3  17.8  17.6   0.0   0.0
 2005 349   121  26.0  24.6  22.7  21.0  19.7  18.6  18.0  17.8   0.0   0.0
 2005 350   122  26.8  25.3  23.2  21.4  20.0  18.8  18.1  17.9   0.0   0.0
 2005 351   123  26.9  25.4  23.3  21.5  20.1  18.9  18.2  17.9   0.0   0.0
 2005 352   124  26.9  25.4  23.4  21.5  20.2  18.9  18.2  17.9   0.0   0.0
 2005 353   125  26.4  25.0  23.0  21.2  20.0  18.8  18.1  17.8   0.0   0.0
 2005 354   126  26.1  24.7  22.8  21.1  19.8  18.7  18.0  17.8   0.0   0.0
 2005 355   127  26.6  25.2  23.2  21.4  20.1  18.8  18.1  17.8   0.0   0.0
 2005 356   128  28.1  26.5  24.2  22.1  20.6  19.2  18.3  18.0   0.0   0.0
 2005 357   129  28.5  26.8  24.5  22.3  20.8  19.3  18.4  18.0   0.0   0.0
 2005 358   130  28.9  27.1  24.7  22.5  20.9  19.4  18.4  18.1   0.0   0.0
 2005 359   131  28.8  27.1  24.7  22.5  20.9  19.3  18.4  18.1   0.0   0.0
 2005 360   132  28.5  26.9  24.5  22.3  20.8  19.3  18.4  18.0   0.0   0.0
 2005 361   133  27.9  26.3  24.1  22.1  20.6  19.2  18.3  18.0   0.0   0.0
 2005 362   134  28.4  26.8  24.4  22.3  20.8  19.3  18.4  18.0   0.0   0.0
 2005 363   135  29.8  28.0  25.4  23.0  21.3  19.6  18.6  18.2   0.0   0.0
 2005 364   136  31.2  29.2  26.4  23.7  21.8  20.0  18.8  18.3   0.0   0.0
 2005 365   137  30.4  28.5  25.8  23.3  21.5  19.8  18.7  18.2   0.0   0.0
 2006 001   138  29.7  27.9  25.3  23.0  21.3  19.6  18.6  18.2   0.0   0.0
 2006 002   139  29.2  27.4  25.0  22.7  21.1  19.4  18.5  18.1   0.0   0.0
 2006 003   140  28.4  26.8  24.5  22.4  20.8  19.3  18.4  18.0   0.0   0.0
 2006 004   141  27.2  25.7  23.6  21.7  20.3  19.0  18.2  17.9   0.0   0.0
 2006 005   142  28.1  26.5  24.3  22.2  20.7  19.2  18.3  18.0   0.0   0.0
 2006 006   143  29.4  27.6  25.2  22.9  21.2  19.5  18.5  18.1   0.0   0.0
 2006 007   144  30.6  28.6  26.0  23.5  21.6  19.8  18.7  18.3   0.0   0.0
 2006 008   145  31.7  29.6  26.7  24.0  22.0  20.1  18.9  18.4   0.0   0.0
 2006 009   146  33.1  30.9  27.7  24.8  22.7  20.5  19.1  18.6   0.0   0.0
 2006 010   147  34.6  32.2  28.7  25.6  23.2  20.8  19.4  18.7   0.0   0.0
 2006 011   148  34.2  31.8  28.5  25.4  23.1  20.8  19.3  18.7   0.0   0.0
 2006 012   149  34.1  31.7  28.4  25.4  23.1  20.8  19.3  18.7   0.0   0.0
 2006 013   150  32.1  30.0  27.1  24.4  22.4  20.3  19.0  18.5   0.0   0.0
 2006 014   151  31.1  29.2  26.5  23.9  22.0  20.1  18.9  18.4   0.0   0.0
 2006 015   152  30.3  28.5  26.0  23.5  21.8  19.9  18.8  18.3   0.0   0.0
 2006 016   153  28.8  27.2  25.0  22.8  21.2  19.6  18.6  18.1   0.0   0.0
 2006 017   154  26.7  25.4  23.5  21.7  20.4  19.0  18.2  17.9   0.0   0.0
 2006 018   155  26.6  25.3  23.5  21.7  20.4  19.0  18.2  17.9   0.0   0.0
 2006 019   156  26.2  25.0  23.2  21.5  20.2  18.9  18.2  17.8   0.0   0.0
 2006 020   157  25.9  24.7  23.0  21.4  20.1  18.9  18.1  17.8   0.0   0.0
 2006 021   158  26.6  25.3  23.5  21.7  20.4  19.0  18.2  17.9   0.0   0.0
 2006 022   159  27.1  25.7  23.8  22.0  20.6  19.2  18.3  17.9   0.0   0.0
 2006 023   160  27.4  26.0  24.0  22.1  20.7  19.3  18.4  18.0   0.0   0.0
 2006 024   161  27.4  26.0  24.0  22.2  20.7  19.3  18.4  18.0   0.0   0.0
 2006 025   162  26.4  25.2  23.4  21.7  20.4  19.0  18.2  17.9   0.0   0.0
 2006 026   163  26.3  25.1  23.3  21.6  20.3  19.0  18.2  17.9   0.0   0.0
 2006 027   164  26.7  25.4  23.6  21.9  20.5  19.1  18.3  17.9   0.0   0.0

*DSSAT Cropping System Model Ver. 4.0.2.000               Aug 19, 2016; 14:29:32

*RUN   7        : UYMZ                    
 MODEL          : MZCER040 - Maize           
 EXPERIMENT     : UYMZ0215 MZ    late to create DSS                             
 TREATMENT  1   : UYMZ                    

@YEAR DOY   DAS  TS1D  TS2D  TS3D  TS4D  TS5D  TS6D  TS7D  TS8D  TS9D  TS10
 2006 228     0  15.0  15.2  15.6  16.1  16.5  17.0  17.4  17.5   0.0   0.0
 2006 229     1  13.8  14.1  14.7  15.4  16.1  16.7  17.2  17.4   0.0   0.0
 2006 230     2  13.1  13.5  14.3  15.1  15.8  16.6  17.1  17.3   0.0   0.0
 2006 231     3  12.9  13.4  14.1  15.0  15.7  16.5  17.0  17.2   0.0   0.0
 2006 232     4  12.0  12.6  13.5  14.5  15.3  16.2  16.8  17.1   0.0   0.0
 2006 233     5  11.6  12.2  13.2  14.2  15.1  16.1  16.8  17.1   0.0   0.0
 2006 234     6  12.8  13.3  14.0  14.9  15.6  16.4  17.0  17.2   0.0   0.0
 2006 235     7  14.6  14.8  15.2  15.8  16.3  16.8  17.2  17.4   0.0   0.0
 2006 236     8  16.1  16.1  16.3  16.5  16.8  17.2  17.5  17.6   0.0   0.0
 2006 237     9  19.0  18.6  18.2  18.0  17.9  17.9  17.9  17.9   0.0   0.0
 2006 238    10  20.5  19.9  19.2  18.7  18.5  18.3  18.1  18.0   0.0   0.0
 2006 239    11  20.0  19.5  18.8  18.4  18.2  18.1  18.0  18.0   0.0   0.0
 2006 240    12  18.3  18.0  17.7  17.6  17.6  17.7  17.8  17.8   0.0   0.0
 2006 241    13  16.9  16.7  16.7  16.8  17.0  17.3  17.5  17.6   0.0   0.0
 2006 242    14  14.5  14.7  15.1  15.6  16.1  16.7  17.1  17.3   0.0   0.0
 2006 243    15  14.2  14.4  14.9  15.4  16.0  16.6  17.1  17.3   0.0   0.0
 2006 244    16  14.2  14.4  14.9  15.4  15.9  16.6  17.1  17.3   0.0   0.0
 2006 245    17  13.8  14.1  14.5  15.2  15.7  16.5  17.0  17.2   0.0   0.0
 2006 246    18  13.1  13.4  14.0  14.8  15.4  16.3  16.8  17.1   0.0   0.0
 2006 247    19  12.2  12.7  13.4  14.3  15.1  16.0  16.7  17.0   0.0   0.0
 2006 248    20  11.1  11.7  12.7  13.7  14.7  15.7  16.5  16.9   0.0   0.0
 2006 249    21  11.0  11.6  12.6  13.7  14.6  15.7  16.5  16.8   0.0   0.0
 2006 250    22  12.1  12.5  13.3  14.2  15.0  15.9  16.6  17.0   0.0   0.0
 2006 251    23  13.8  14.0  14.4  15.1  15.6  16.3  16.9  17.1   0.0   0.0
 2006 252    24  15.7  15.7  15.8  16.1  16.4  16.8  17.2  17.4   0.0   0.0
 2006 253    25  17.8  17.5  17.2  17.1  17.2  17.3  17.5  17.6   0.0   0.0
 2006 254    26  20.6  19.9  19.1  18.5  18.2  18.0  17.9  17.9   0.0   0.0
 2006 255    27  20.6  19.9  19.1  18.5  18.2  18.0  17.9  17.9   0.0   0.0
 2006 256    28  19.2  18.7  18.1  17.8  17.6  17.6  17.7  17.7   0.0   0.0
 2006 257    29  18.1  17.7  17.4  17.2  17.2  17.3  17.5  17.6   0.0   0.0
 2006 258    30  17.4  17.2  16.9  16.8  16.9  17.2  17.4  17.5   0.0   0.0
 2006 259    31  15.7  15.7  15.7  15.9  16.3  16.7  17.1  17.3   0.0   0.0
 2006 260    32  16.3  16.1  16.1  16.2  16.5  16.8  17.2  17.3   0.0   0.0
 2006 261    33  18.3  17.9  17.4  17.2  17.2  17.3  17.5  17.5   0.0   0.0
 2006 262    34  20.0  19.4  18.6  18.1  17.9  17.8  17.7  17.7   0.0   0.0
 2006 263    35  20.1  19.4  18.7  18.1  17.9  17.8  17.7  17.7   0.0   0.0
 2006 264    36  20.3  19.6  18.8  18.2  17.9  17.8  17.8  17.7   0.0   0.0
 2006 265    37  21.1  20.3  19.3  18.6  18.2  18.0  17.9  17.8   0.0   0.0
 2006 266    38  20.4  19.7  18.8  18.2  17.9  17.8  17.7  17.7   0.0   0.0
 2006 267    39  19.2  18.7  18.0  17.6  17.5  17.5  17.5  17.6   0.0   0.0
 2006 268    40  19.4  18.8  18.1  17.7  17.5  17.5  17.6  17.6   0.0   0.0
[...]
 2009 294    66  20.0  19.3  18.4  17.8  17.5  17.3  17.3  17.4   0.0   0.0
 2009 295    67  20.5  19.7  18.8  18.0  17.7  17.4  17.4  17.5   0.0   0.0
 2009 296    68  21.8  20.9  19.7  18.7  18.2  17.8  17.6  17.6   0.0   0.0
 2009 297    69  21.2  20.4  19.3  18.4  17.9  17.6  17.5  17.5   0.0   0.0
 2009 298    70  20.9  20.1  19.0  18.2  17.8  17.5  17.5  17.5   0.0   0.0
 2009 299    71  20.9  20.0  19.0  18.2  17.8  17.5  17.4  17.5   0.0   0.0
 2009 300    72  20.6  19.8  18.8  18.1  17.6  17.4  17.4  17.4   0.0   0.0
 2009 301    73  20.5  19.7  18.8  18.0  17.6  17.4  17.4  17.4   0.0   0.0
 2009 302    74  23.1  22.0  20.5  19.3  18.6  18.0  17.8  17.7   0.0   0.0
 2009 303    75  25.2  23.8  22.0  20.4  19.4  18.5  18.1  17.9   0.0   0.0
 2009 304    76  26.5  24.9  22.8  21.0  19.9  18.8  18.3  18.1   0.0   0.0
 2009 305    77  28.1  26.3  24.0  21.9  20.5  19.3  18.5  18.2   0.0   0.0
 2009 306    78  28.7  26.9  24.4  22.2  20.8  19.4  18.6  18.3   0.0   0.0
 2009 307    79  26.4  24.9  22.8  21.1  19.9  18.9  18.3  18.1   0.0   0.0
 2009 308    80  23.6  22.5  20.9  19.7  18.8  18.1  17.8  17.7   0.0   0.0
 2009 309    81  22.4  21.4  20.1  19.0  18.3  17.8  17.6  17.6   0.0   0.0
 2009 310    82  20.7  19.9  18.9  18.1  17.7  17.4  17.3  17.4   0.0   0.0
 2009 311    83  18.4  17.9  17.3  16.9  16.8  16.8  16.9  17.1   0.0   0.0
 2009 312    84  18.0  17.6  17.1  16.7  16.6  16.7  16.9  17.0   0.0   0.0
 2009 313    85  19.1  18.5  17.8  17.3  17.0  16.9  17.0  17.1   0.0   0.0
 2009 314    86  19.5  18.9  18.1  17.5  17.2  17.0  17.1  17.2   0.0   0.0
 2009 315    87  20.0  19.3  18.5  17.8  17.4  17.2  17.2  17.2   0.0   0.0
 2009 316    88  21.7  20.8  19.6  18.6  18.0  17.6  17.4  17.4   0.0   0.0
 2009 317    89  23.0  21.9  20.5  19.3  18.5  17.9  17.6  17.6   0.0   0.0
 2009 318    90  22.9  21.8  20.4  19.2  18.5  17.9  17.6  17.6   0.0   0.0
 2009 319    91  22.6  21.6  20.2  19.1  18.4  17.8  17.6  17.5   0.0   0.0
 2009 320    92  22.8  21.7  20.4  19.2  18.5  17.8  17.6  17.5   0.0   0.0
 2009 321    93  22.9  21.8  20.4  19.3  18.5  17.9  17.6  17.5   0.0   0.0
 2009 322    94  22.6  21.6  20.3  19.1  18.4  17.8  17.6  17.5   0.0   0.0
 2009 323    95  23.2  22.1  20.6  19.4  18.6  17.9  17.6  17.6   0.0   0.0
 2009 324    96  23.6  22.4  20.9  19.6  18.8  18.0  17.7  17.6   0.0   0.0
 2009 325    97  22.6  21.6  20.2  19.1  18.4  17.8  17.5  17.5   0.0   0.0
 2009 326    98  22.5  21.5  20.2  19.1  18.4  17.8  17.5  17.5   0.0   0.0
 2009 327    99  22.3  21.4  20.1  19.0  18.3  17.7  17.5  17.4   0.0   0.0
 2009 328   100  22.0  21.1  19.9  18.9  18.2  17.6  17.4  17.4   0.0   0.0
 2009 329   101  23.8  22.6  21.1  19.8  18.9  18.1  17.7  17.6   0.0   0.0
 2009 330   102  25.4  24.0  22.2  20.6  19.5  18.5  18.0  17.8   0.0   0.0
 2009 331   103  25.0  23.7  21.9  20.4  19.3  18.4  17.9  17.7   0.0   0.0
 2009 332   104  25.2  23.9  22.1  20.5  19.4  18.5  17.9  17.8   0.0   0.0
 2009 333   105  26.2  24.8  22.8  21.1  19.8  18.7  18.1  17.9   0.0   0.0
 2009 334   106  24.8  23.5  21.8  20.3  19.3  18.4  17.9  17.7   0.0   0.0
 2009 335   107  24.3  23.1  21.5  20.1  19.1  18.2  17.8  17.6   0.0   0.0
 2009 336   108  23.8  22.6  21.1  19.8  18.9  18.1  17.7  17.6   0.0   0.0
 2009 337   109  23.4  22.4  20.9  19.6  18.8  18.0  17.6  17.5   0.0   0.0
 2009 338   110  21.5  20.7  19.6  18.6  18.0  17.5  17.3  17.3   0.0   0.0
 2009 339   111  21.2  20.4  19.3  18.5  17.9  17.4  17.3  17.3   0.0   0.0
 2009 340   112  20.5  19.8  18.9  18.1  17.6  17.2  17.1  17.2   0.0   0.0
 2009 341   113  20.1  19.4  18.6  17.9  17.5  17.1  17.1  17.1   0.0   0.0
 2009 342   114  20.3  19.7  18.8  18.0  17.6  17.2  17.1  17.2   0.0   0.0
 2009 343   115  21.5  20.7  19.6  18.6  18.0  17.5  17.3  17.3   0.0   0.0
 2009 344   116  22.0  21.1  19.9  18.9  18.2  17.6  17.4  17.3   0.0   0.0
 2009 345   117  21.6  20.8  19.7  18.7  18.1  17.5  17.3  17.3   0.0   0.0
 2009 346   118  21.7  20.9  19.8  18.8  18.1  17.6  17.3  17.3   0.0   0.0
 2009 347   119  21.5  20.7  19.6  18.7  18.0  17.5  17.3  17.3   0.0   0.0
 2009 348   120  21.2  20.5  19.5  18.6  18.0  17.5  17.3  17.2   0.0   0.0
 2009 349   121  21.6  20.8  19.7  18.8  18.1  17.5  17.3  17.3   0.0   0.0
 2009 350   122  22.4  21.5  20.3  19.2  18.4  17.8  17.4  17.4   0.0   0.0
 2009 351   123  23.4  22.4  21.0  19.7  18.8  18.0  17.6  17.5   0.0   0.0
 2009 352   124  24.7  23.5  21.9  20.4  19.3  18.3  17.8  17.6   0.0   0.0
 2009 353   125  26.2  24.8  22.9  21.1  19.9  18.7  18.1  17.8   0.0   0.0
 2009 354   126  26.1  24.7  22.8  21.1  19.9  18.7  18.0  17.8   0.0   0.0
 2009 355   127  26.4  25.0  23.1  21.3  20.0  18.8  18.1  17.8   0.0   0.0
 2009 356   128  26.5  25.1  23.1  21.3  20.1  18.8  18.1  17.8   0.0   0.0
 2009 357   129  25.3  24.1  22.3  20.8  19.6  18.5  17.9  17.7   0.0   0.0
 2009 358   130  23.8  22.8  21.3  20.0  19.0  18.2  17.7  17.5   0.0   0.0
 2009 359   131  24.1  23.0  21.5  20.2  19.2  18.2  17.7  17.6   0.0   0.0
 2009 360   132  24.2  23.1  21.6  20.2  19.2  18.3  17.8  17.6   0.0   0.0
 2009 361   133  24.7  23.6  22.0  20.6  19.5  18.4  17.9  17.7   0.0   0.0
 2009 362   134  25.9  24.6  22.8  21.2  19.9  18.7  18.1  17.8   0.0   0.0
 2009 363   135  26.7  25.3  23.4  21.6  20.2  18.9  18.2  17.9   0.0   0.0
 2009 364   136  26.6  25.2  23.3  21.5  20.2  18.9  18.2  17.9   0.0   0.0
 2009 365   137  26.4  25.1  23.2  21.5  20.2  18.9  18.1  17.9   0.0   0.0
 2010 001   138  26.2  24.9  23.0  21.3  20.0  18.8  18.1  17.8   0.0   0.0
 2010 002   139  26.5  25.1  23.2  21.4  20.1  18.9  18.1  17.8   0.0   0.0
 2010 003   140  26.8  25.4  23.4  21.6  20.3  19.0  18.2  17.9   0.0   0.0
 2010 004   141  26.8  25.4  23.5  21.6  20.3  19.0  18.2  17.9   0.0   0.0
 2010 005   142  27.6  26.1  24.0  22.0  20.6  19.2  18.3  18.0   0.0   0.0
 2010 006   143  27.0  25.6  23.6  21.8  20.4  19.0  18.2  17.9   0.0   0.0
 2010 007   144  26.0  24.8  23.0  21.3  20.1  18.8  18.1  17.8   0.0   0.0
 2010 008   145  25.4  24.2  22.6  21.0  19.8  18.7  18.0  17.7   0.0   0.0
 2010 009   146  25.6  24.4  22.7  21.1  19.9  18.7  18.0  17.8   0.0   0.0
 2010 010   147  25.8  24.6  22.8  21.2  20.0  18.8  18.1  17.8   0.0   0.0
 2010 011   148  26.3  25.1  23.2  21.5  20.2  18.9  18.2  17.9   0.0   0.0
 2010 012   149  26.2  25.0  23.2  21.5  20.2  18.9  18.2  17.8   0.0   0.0
 2010 013   150  26.3  25.1  23.3  21.5  20.3  19.0  18.2  17.9   0.0   0.0
 2010 014   151  26.1  24.9  23.1  21.4  20.2  18.9  18.1  17.8   0.0   0.0
 2010 015   152  25.6  24.4  22.8  21.2  20.0  18.8  18.1  17.8   0.0   0.0
 2010 016   153  25.2  24.1  22.5  21.0  19.9  18.7  18.0  17.7   0.0   0.0
 2010 017   154  27.1  25.8  23.8  22.0  20.6  19.2  18.3  18.0   0.0   0.0
 2010 018   155  27.9  26.4  24.4  22.4  20.9  19.4  18.5  18.1   0.0   0.0
 2010 019   156  27.9  26.5  24.4  22.5  21.0  19.4  18.5  18.1   0.0   0.0
 2010 020   157  27.9  26.5  24.5  22.5  21.0  19.5  18.5  18.1   0.0   0.0
 2010 021   158  28.5  27.0  24.8  22.8  21.2  19.6  18.6  18.1   0.0   0.0
 2010 022   159  27.5  26.2  24.2  22.3  20.8  19.4  18.4  18.0   0.0   0.0
 2010 023   160  27.2  25.9  24.0  22.1  20.7  19.3  18.4  18.0   0.0   0.0
 2010 024   161  27.9  26.5  24.5  22.5  21.0  19.5  18.5  18.1   0.0   0.0
 2010 025   162  28.6  27.1  24.9  22.9  21.3  19.7  18.6  18.2   0.0   0.0
 2010 026   163  28.5  27.0  24.9  22.8  21.2  19.6  18.6  18.2   0.0   0.0
 2010 027   164  28.7  27.2  25.0  23.0  21.4  19.7  18.6  18.2   0.0   0.0
 2010 028   165  28.5  27.0  24.9  22.9  21.3  19.7  18.6  18.2   0.0   0.0

*DSSAT Cropping System Model Ver. 4.0.2.000               Aug 19, 2016; 14:29:32

*RUN  11        : UYMZ                    
 MODEL          : MZCER040 - Maize           
 EXPERIMENT     : UYMZ0215 MZ    late to create DSS                             
 TREATMENT  1   : UYMZ                    

@YEAR DOY   DAS  TS1D  TS2D  TS3D  TS4D  TS5D  TS6D  TS7D  TS8D  TS9D  TS10
 2010 228     0   7.9   9.0  10.8  12.5  13.8  15.3  16.3  16.7   0.0   0.0
 2010 229     1  10.3  11.1  12.4  13.7  14.7  15.9  16.6  17.0   0.0   0.0
 2010 230     2  13.6  14.0  14.6  15.3  16.0  16.7  17.1  17.3   0.0   0.0
 2010 231     3  16.0  16.1  16.2  16.6  16.9  17.3  17.5  17.6   0.0   0.0
 2010 232     4  18.3  18.0  17.8  17.7  17.7  17.8  17.8  17.8   0.0   0.0
 2010 233     5  18.8  18.5  18.1  17.9  17.9  17.9  17.9  17.9   0.0   0.0
 2010 234     6  19.2  18.8  18.4  18.1  18.0  18.0  18.0  17.9   0.0   0.0
 2010 235     7  19.7  19.3  18.7  18.4  18.2  18.1  18.0  18.0   0.0   0.0
 2010 236     8  19.7  19.2  18.7  18.4  18.2  18.1  18.0  18.0   0.0   0.0
 2010 237     9  18.7  18.3  18.0  17.8  17.8  17.8  17.8  17.8   0.0   0.0
 2010 238    10  18.4  18.1  17.8  17.6  17.7  17.7  17.8  17.8   0.0   0.0
 2010 239    11  17.8  17.5  17.3  17.3  17.4  17.6  17.7  17.7   0.0   0.0
 2010 240    12  17.5  17.2  17.1  17.1  17.3  17.5  17.6  17.7   0.0   0.0
 2010 241    13  17.4  17.2  17.0  17.1  17.2  17.4  17.6  17.6   0.0   0.0
 2010 242    14  17.4  17.2  17.1  17.1  17.2  17.4  17.6  17.6   0.0   0.0
 2010 243    15  18.2  17.9  17.6  17.5  17.5  17.6  17.7  17.7   0.0   0.0
 2010 244    16  18.3  18.0  17.6  17.5  17.5  17.6  17.7  17.7   0.0   0.0
 2010 245    17  16.6  16.5  16.5  16.6  16.8  17.2  17.4  17.5   0.0   0.0
 2010 246    18  16.1  16.0  16.1  16.3  16.6  17.0  17.3  17.4   0.0   0.0
 2010 247    19  15.8  15.8  15.9  16.2  16.5  16.9  17.3  17.4   0.0   0.0
 2010 248    20  15.3  15.4  15.5  15.9  16.3  16.8  17.2  17.3   0.0   0.0
 2010 249    21  15.7  15.7  15.8  16.1  16.4  16.9  17.2  17.4   0.0   0.0
 2010 250    22  16.6  16.5  16.4  16.5  16.7  17.1  17.3  17.5   0.0   0.0
 2010 251    23  17.5  17.3  17.0  17.0  17.1  17.3  17.5  17.6   0.0   0.0
 2010 252    24  19.8  19.2  18.5  18.1  17.9  17.8  17.8  17.8   0.0   0.0
 2010 253    25  20.9  20.2  19.3  18.7  18.4  18.1  18.0  17.9   0.0   0.0
 2010 254    26  20.6  19.9  19.1  18.5  18.2  18.0  17.9  17.9   0.0   0.0
 2010 255    27  19.2  18.7  18.1  17.8  17.7  17.6  17.7  17.7   0.0   0.0
 2010 256    28  18.0  17.7  17.3  17.2  17.2  17.3  17.5  17.6   0.0   0.0
 2010 257    29  16.4  16.3  16.2  16.3  16.5  16.9  17.2  17.4   0.0   0.0
 2010 258    30  15.5  15.4  15.5  15.8  16.2  16.6  17.0  17.2   0.0   0.0
 2010 259    31  16.1  16.0  16.0  16.1  16.4  16.8  17.1  17.3   0.0   0.0
 2010 260    32  17.1  16.9  16.7  16.7  16.8  17.0  17.3  17.4   0.0   0.0
 2010 261    33  17.4  17.1  16.9  16.8  16.9  17.1  17.3  17.4   0.0   0.0
 2010 262    34  18.5  18.0  17.6  17.3  17.3  17.4  17.5  17.6   0.0   0.0
 2010 263    35  19.3  18.7  18.1  17.7  17.6  17.6  17.6  17.6   0.0   0.0
 2010 264    36  19.4  18.9  18.2  17.8  17.6  17.6  17.6  17.6   0.0   0.0
 2010 265    37  20.4  19.7  18.9  18.3  18.0  17.8  17.8  17.8   0.0   0.0
 2010 266    38  20.7  20.0  19.1  18.4  18.1  17.9  17.8  17.8   0.0   0.0
 2010 267    39  20.4  19.7  18.9  18.3  18.0  17.8  17.7  17.7   0.0   0.0
 2010 268    40  18.9  18.4  17.8  17.5  17.4  17.4  17.5  17.6   0.0   0.0
 2010 269    41  18.1  17.6  17.2  17.0  17.0  17.1  17.3  17.4   0.0   0.0
 2010 270    42  17.3  17.0  16.7  16.6  16.7  16.9  17.2  17.3   0.0   0.0
 2010 271    43  18.5  18.0  17.5  17.2  17.2  17.2  17.4  17.5   0.0   0.0
 2010 272    44  18.4  17.9  17.4  17.1  17.1  17.2  17.3  17.4   0.0   0.0
 2010 273    45  19.2  18.6  18.0  17.6  17.4  17.4  17.5  17.5   0.0   0.0
 2010 274    46  19.0  18.5  17.9  17.5  17.3  17.3  17.4  17.5   0.0   0.0
 2010 275    47  18.6  18.1  17.6  17.2  17.1  17.2  17.4  17.4   0.0   0.0
 2010 276    48  17.6  17.3  16.9  16.7  16.8  16.9  17.2  17.3   0.0   0.0
 2010 277    49  18.2  17.8  17.3  17.0  17.0  17.1  17.3  17.4   0.0   0.0
 2010 278    50  18.7  18.2  17.6  17.2  17.1  17.2  17.3  17.4   0.0   0.0
 2010 279    51  20.0  19.3  18.5  17.9  17.6  17.5  17.5  17.6   0.0   0.0
 2010 280    52  20.1  19.4  18.5  18.0  17.7  17.5  17.5  17.6   0.0   0.0
 2010 281    53  20.3  19.6  18.7  18.1  17.7  17.6  17.6  17.6   0.0   0.0
 2010 282    54  20.0  19.3  18.5  17.9  17.6  17.5  17.5  17.5   0.0   0.0
 2010 283    55  19.4  18.8  18.1  17.6  17.4  17.3  17.4  17.5   0.0   0.0
 2010 284    56  18.6  18.1  17.5  17.2  17.0  17.1  17.2  17.4   0.0   0.0
 2010 285    57  19.6  18.9  18.2  17.6  17.4  17.3  17.4  17.5   0.0   0.0
 2010 286    58  20.6  19.8  18.9  18.2  17.8  17.6  17.5  17.6   0.0   0.0
 2010 287    59  20.9  20.1  19.0  18.3  17.9  17.6  17.6  17.6   0.0   0.0
 2010 288    60  20.9  20.1  19.1  18.3  17.9  17.6  17.6  17.6   0.0   0.0
 2010 289    61  20.4  19.6  18.7  18.0  17.7  17.5  17.5  17.5   0.0   0.0
 2010 290    62  19.6  19.0  18.2  17.6  17.4  17.3  17.3  17.4   0.0   0.0
 2010 291    63  18.9  18.4  17.7  17.3  17.1  17.1  17.2  17.3   0.0   0.0
 2010 292    64  19.5  18.8  18.1  17.5  17.3  17.2  17.3  17.4   0.0   0.0
 2010 293    65  20.6  19.8  18.8  18.1  17.7  17.5  17.5  17.5   0.0   0.0
 2010 294    66  22.6  21.5  20.2  19.1  18.5  18.0  17.8  17.7   0.0   0.0
 2010 295    67  23.6  22.4  20.9  19.7  18.9  18.2  17.9  17.8   0.0   0.0
 2010 296    68  23.7  22.5  20.9  19.7  18.9  18.2  17.9  17.8   0.0   0.0
 2010 297    69  23.4  22.2  20.7  19.5  18.7  18.1  17.9  17.8   0.0   0.0
 2010 298    70  22.6  21.6  20.2  19.1  18.5  17.9  17.7  17.7   0.0   0.0
 2010 299    71  21.5  20.6  19.4  18.5  18.0  17.6  17.5  17.5   0.0   0.0
 2010 300    72  21.1  20.3  19.2  18.3  17.9  17.5  17.5  17.5   0.0   0.0
 2010 301    73  21.7  20.8  19.6  18.6  18.1  17.7  17.6  17.5   0.0   0.0
 2010 302    74  21.3  20.4  19.3  18.4  17.9  17.6  17.5  17.5   0.0   0.0
 2010 303    75  21.3  20.4  19.3  18.4  17.9  17.6  17.5  17.5   0.0   0.0
 2010 304    76  21.7  20.8  19.6  18.6  18.1  17.7  17.5  17.5   0.0   0.0
 2010 305    77  22.1  21.1  19.8  18.8  18.2  17.7  17.6  17.6   0.0   0.0
 2010 306    78  22.3  21.3  20.0  18.9  18.3  17.8  17.6  17.6   0.0   0.0
 2010 307    79  24.3  23.0  21.3  19.9  19.0  18.3  17.9  17.8   0.0   0.0
 2010 308    80  25.9  24.4  22.4  20.7  19.6  18.7  18.1  18.0   0.0   0.0
 2010 309    81  26.4  24.8  22.8  21.0  19.8  18.8  18.2  18.0   0.0   0.0
 2010 310    82  26.6  25.0  22.9  21.1  19.9  18.8  18.2  18.0   0.0   0.0
 2010 311    83  27.6  25.8  23.6  21.6  20.3  19.1  18.4  18.1   0.0   0.0
 2010 312    84  28.5  26.7  24.2  22.1  20.6  19.3  18.5  18.2   0.0   0.0
 2010 313    85  25.8  24.4  22.4  20.7  19.6  18.6  18.1  17.9   0.0   0.0
 2010 314    86  24.7  23.4  21.7  20.2  19.2  18.4  17.9  17.8   0.0   0.0
 2010 315    87  23.7  22.5  20.9  19.6  18.8  18.1  17.8  17.7   0.0   0.0
 2010 316    88  21.5  20.6  19.5  18.5  18.0  17.5  17.4  17.4   0.0   0.0
 2010 317    89  19.1  18.6  17.8  17.3  17.0  16.9  17.0  17.1   0.0   0.0
 2010 318    90  20.4  19.6  18.7  17.9  17.5  17.2  17.2  17.3   0.0   0.0
 2010 319    91  20.7  19.9  18.9  18.1  17.6  17.3  17.3  17.3   0.0   0.0
 2010 320    92  21.2  20.3  19.2  18.3  17.8  17.4  17.3  17.4   0.0   0.0
 2010 321    93  21.9  20.9  19.7  18.7  18.1  17.6  17.4  17.4   0.0   0.0
 2010 322    94  22.5  21.5  20.1  19.0  18.3  17.7  17.5  17.5   0.0   0.0
 2010 323    95  22.8  21.7  20.3  19.1  18.4  17.8  17.6  17.5   0.0   0.0
 2010 324    96  23.7  22.5  21.0  19.6  18.8  18.0  17.7  17.6   0.0   0.0
 2010 325    97  24.7  23.4  21.6  20.1  19.1  18.3  17.9  17.7   0.0   0.0
 2010 326    98  25.0  23.6  21.9  20.3  19.3  18.4  17.9  17.7   0.0   0.0
 2010 327    99  24.9  23.5  21.8  20.2  19.2  18.3  17.9  17.7   0.0   0.0
 2010 328   100  25.5  24.1  22.2  20.6  19.5  18.5  18.0  17.8   0.0   0.0
 2010 329   101  25.5  24.1  22.2  20.6  19.5  18.5  18.0  17.8   0.0   0.0
 2010 330   102  26.1  24.6  22.6  20.9  19.7  18.6  18.1  17.8   0.0   0.0
 2010 331   103  27.4  25.7  23.5  21.5  20.2  18.9  18.2  18.0   0.0   0.0
 2010 332   104  26.8  25.2  23.1  21.2  19.9  18.8  18.1  17.9   0.0   0.0
 2010 333   105  25.8  24.3  22.4  20.7  19.6  18.5  18.0  17.8   0.0   0.0
 2010 334   106  25.9  24.5  22.5  20.8  19.6  18.5  18.0  17.8   0.0   0.0
 2010 335   107  26.1  24.6  22.6  20.9  19.7  18.6  18.0  17.8   0.0   0.0
 2010 336   108  26.4  24.9  22.9  21.1  19.8  18.7  18.1  17.9   0.0   0.0
 2010 337   109  28.1  26.4  24.0  21.9  20.5  19.1  18.3  18.0   0.0   0.0
 2010 338   110  29.8  27.9  25.2  22.8  21.1  19.5  18.6  18.2   0.0   0.0
 2010 339   111  30.2  28.2  25.5  23.0  21.3  19.6  18.7  18.3   0.0   0.0
 2010 340   112  30.1  28.1  25.4  22.9  21.2  19.6  18.6  18.2   0.0   0.0
 2010 341   113  30.0  28.0  25.3  22.9  21.2  19.5  18.6  18.2   0.0   0.0
 2010 342   114  29.6  27.7  25.1  22.7  21.1  19.5  18.6  18.2   0.0   0.0
 2010 343   115  29.8  27.9  25.2  22.9  21.2  19.5  18.6  18.2   0.0   0.0
 2010 344   116  30.4  28.4  25.6  23.2  21.4  19.7  18.7  18.3   0.0   0.0
 2010 345   117  30.4  28.4  25.6  23.2  21.4  19.7  18.7  18.3   0.0   0.0
 2010 346   118  27.7  26.1  23.8  21.8  20.4  19.0  18.3  18.0   0.0   0.0
 2010 347   119  27.3  25.7  23.5  21.6  20.2  18.9  18.2  17.9   0.0   0.0
 2010 348   120  26.9  25.4  23.3  21.4  20.1  18.8  18.1  17.9   0.0   0.0
 2010 349   121  26.5  25.0  23.0  21.2  19.9  18.7  18.1  17.8   0.0   0.0
 2010 350   122  26.7  25.2  23.2  21.3  20.0  18.8  18.1  17.9   0.0   0.0
 2010 351   123  29.2  27.4  24.9  22.6  21.0  19.4  18.5  18.1   0.0   0.0
 2010 352   124  30.2  28.3  25.6  23.1  21.4  19.6  18.6  18.2   0.0   0.0
 2010 353   125  29.0  27.2  24.8  22.5  20.9  19.4  18.5  18.1   0.0   0.0
 2010 354   126  28.2  26.5  24.2  22.1  20.6  19.2  18.3  18.0   0.0   0.0
 2010 355   127  28.1  26.4  24.2  22.1  20.6  19.1  18.3  18.0   0.0   0.0
 2010 356   128  28.1  26.5  24.2  22.1  20.6  19.2  18.3  18.0   0.0   0.0
 2010 357   129  28.4  26.7  24.4  22.3  20.7  19.2  18.4  18.0   0.0   0.0
 2010 358   130  28.9  27.2  24.7  22.5  20.9  19.3  18.4  18.1   0.0   0.0
 2010 359   131  29.9  28.0  25.5  23.1  21.4  19.7  18.7  18.2   0.0   0.0
 2010 360   132  30.3  28.4  25.8  23.3  21.5  19.8  18.7  18.3   0.0   0.0
 2010 361   133  30.4  28.5  25.9  23.4  21.6  19.8  18.7  18.3   0.0   0.0
 2010 362   134  29.9  28.1  25.5  23.2  21.4  19.7  18.7  18.2   0.0   0.0
 2010 363   135  30.6  28.7  26.0  23.5  21.7  19.9  18.8  18.3   0.0   0.0
 2010 364   136  30.1  28.2  25.6  23.2  21.5  19.7  18.7  18.2   0.0   0.0
 2010 365   137  29.5  27.7  25.3  23.0  21.3  19.6  18.6  18.2   0.0   0.0
 2011 001   138  28.9  27.1  24.8  22.6  21.0  19.4  18.5  18.1   0.0   0.0
 2011 002   139  28.2  26.6  24.3  22.2  20.7  19.2  18.4  18.0   0.0   0.0
 2011 003   140  27.0  25.6  23.5  21.7  20.3  18.9  18.2  17.9   0.0   0.0
 2011 004   141  26.9  25.4  23.4  21.6  20.2  18.9  18.2  17.9   0.0   0.0
 2011 005   142  26.6  25.2  23.2  21.4  20.1  18.8  18.1  17.8   0.0   0.0
 2011 006   143  26.9  25.5  23.5  21.6  20.3  18.9  18.2  17.9   0.0   0.0
 2011 007   144  28.5  26.8  24.6  22.5  20.9  19.4  18.4  18.1   0.0   0.0
 2011 008   145  30.1  28.3  25.7  23.3  21.5  19.8  18.7  18.2   0.0   0.0
 2011 009   146  30.9  29.0  26.3  23.7  21.9  20.0  18.8  18.3   0.0   0.0
 2011 010   147  30.9  29.0  26.3  23.7  21.9  20.0  18.8  18.3   0.0   0.0
 2011 011   148  29.8  28.1  25.6  23.2  21.5  19.7  18.7  18.2   0.0   0.0
 2011 012   149  28.5  26.9  24.6  22.5  21.0  19.4  18.5  18.1   0.0   0.0
 2011 013   150  27.8  26.4  24.2  22.3  20.8  19.3  18.4  18.0   0.0   0.0
 2011 014   151  27.2  25.8  23.8  21.9  20.5  19.1  18.3  17.9   0.0   0.0
 2011 015   152  27.9  26.5  24.3  22.3  20.8  19.3  18.4  18.0   0.0   0.0
 2011 016   153  29.3  27.6  25.3  23.0  21.4  19.7  18.6  18.2   0.0   0.0
 2011 017   154  29.8  28.1  25.6  23.3  21.5  19.8  18.7  18.2   0.0   0.0
 2011 018   155  30.4  28.5  26.0  23.6  21.8  19.9  18.8  18.3   0.0   0.0
 2011 019   156  30.9  29.1  26.4  23.9  22.0  20.1  18.9  18.4   0.0   0.0
 2011 020   157  30.7  28.9  26.3  23.8  21.9  20.0  18.8  18.3   0.0   0.0
