*SOIL WATER DAILY OUTPUT FILE

*DSSAT Cropping System Model Ver. 4.0.2.000               Aug 23, 2016; 18:13:15

*RUN   1        : UYSB                    
 MODEL          : CRGRO040 - Soybean         
 EXPERIMENT     : UYSB0297 SB    late to create DSS                             
 TREATMENT  1   : UYSB                    

@YEAR DOY   DAS  SWXD   ROFC   DRNC   PREC  IR#C  IRRC  DTWT   SW1D   SW2D   SW3D   SW4D   SW5D   SW6D   SW7D   SW8D   SW9D   SW10
 1999 232     0   116      0      0      0     0     0   125  0.347  0.394  0.394  0.335  0.375  0.419  0.408  0.395  0.000  0.000
 1999 233     1   114      0      0      0     0     0   125  0.322  0.393  0.394  0.335  0.376  0.418  0.408  0.395  0.000  0.000
 1999 234     2   115      0      0      2     0     0   125  0.343  0.391  0.394  0.336  0.376  0.418  0.408  0.395  0.000  0.000
 1999 235     3   156      0      0      2     1    42   125  0.549  0.567  0.480  0.336  0.377  0.417  0.408  0.395  0.000  0.000
 1999 236     4   154      0      0      2     1    42   125  0.519  0.547  0.492  0.338  0.377  0.417  0.408  0.395  0.000  0.000
 1999 237     5   152      0      0      2     1    42   125  0.488  0.528  0.496  0.341  0.378  0.416  0.408  0.395  0.000  0.000
 1999 238     6   149      0      0      2     1    42   125  0.457  0.513  0.496  0.344  0.378  0.416  0.408  0.395  0.000  0.000
 1999 239     7   147      0      0      2     1    42   125  0.437  0.500  0.494  0.346  0.378  0.415  0.408  0.395  0.000  0.000
 1999 240     8   146      0      0      2     1    42   125  0.434  0.491  0.492  0.349  0.379  0.415  0.408  0.395  0.000  0.000
 1999 241     9   145      0      0      2     1    42   125  0.428  0.484  0.490  0.351  0.379  0.415  0.408  0.395  0.000  0.000
 1999 242    10   145      0      0      4     1    42   125  0.455  0.478  0.487  0.353  0.379  0.414  0.408  0.395  0.000  0.000
 1999 243    11   144      0      0      4     1    42   125  0.441  0.476  0.485  0.355  0.380  0.414  0.407  0.395  0.000  0.000
 1999 244    12   143      0      0      4     1    42   125  0.432  0.473  0.483  0.357  0.380  0.414  0.407  0.395  0.000  0.000
 1999 245    13   151      0      0     13     1    42   125  0.545  0.492  0.480  0.358  0.381  0.413  0.407  0.395  0.000  0.000
 1999 246    14   160      0      0     24     1    42   125  0.516  0.578  0.493  0.360  0.381  0.413  0.407  0.395  0.000  0.000
 1999 247    15   161      0      0     26     1    42   125  0.554  0.547  0.508  0.362  0.381  0.413  0.407  0.395  0.000  0.000
 1999 248    16   164      0      0     30     1    42   125  0.542  0.558  0.520  0.365  0.382  0.412  0.407  0.395  0.000  0.000
 1999 249    17   171      0      0     40     1    42   125  0.502  0.563  0.561  0.381  0.382  0.412  0.407  0.395  0.000  0.000
 1999 250    18   185      0      0     56     1    42   125  0.550  0.559  0.564  0.452  0.390  0.412  0.407  0.395  0.000  0.000
 1999 251    19   181      0      0     56     1    42   125  0.466  0.552  0.555  0.445  0.412  0.412  0.407  0.395  0.000  0.000
 1999 252    20   179      0      0     56     1    42   125  0.460  0.528  0.547  0.441  0.423  0.412  0.407  0.395  0.000  0.000
 1999 253    21   177      0      0     56     1    42   125  0.459  0.518  0.540  0.440  0.427  0.412  0.407  0.395  0.000  0.000
 1999 254    22   175      0      0     56     1    42   125  0.460  0.512  0.535  0.439  0.427  0.412  0.407  0.395  0.000  0.000
 1999 255    23   174      0      0     56     1    42   125  0.462  0.508  0.531  0.438  0.427  0.412  0.407  0.395  0.000  0.000
 1999 256    24   181      0      0     67     1    42   125  0.520  0.550  0.533  0.437  0.427  0.412  0.406  0.395  0.000  0.000
 1999 257    25   180      0      0     67     1    42   125  0.501  0.535  0.537  0.436  0.427  0.412  0.406  0.395  0.000  0.000
 1999 258    26   177      0      0     67     1    42   125  0.476  0.526  0.535  0.436  0.427  0.412  0.406  0.395  0.000  0.000
 1999 259    27   176      0      0     67     1    42   125  0.476  0.517  0.532  0.435  0.427  0.412  0.406  0.395  0.000  0.000
 1999 260    28   175      0      0     67     1    42   125  0.475  0.512  0.529  0.434  0.427  0.412  0.406  0.395  0.000  0.000
 1999 261    29   174      0      0     67     1    42   125  0.474  0.508  0.526  0.434  0.427  0.412  0.406  0.394  0.000  0.000
 1999 262    30   173      0      0     67     1    42   125  0.472  0.505  0.524  0.433  0.427  0.412  0.406  0.394  0.000  0.000
 1999 263    31   172      0      0     67     1    42   125  0.471  0.503  0.522  0.432  0.427  0.413  0.406  0.394  0.000  0.000
 1999 264    32   171      0      0     67     1    42   125  0.470  0.501  0.519  0.431  0.427  0.413  0.406  0.394  0.000  0.000
 1999 265    33   170      0      0     67     1    42   125  0.470  0.499  0.518  0.430  0.426  0.413  0.406  0.394  0.000  0.000
 1999 266    34   170      0      0     67     1    42   125  0.469  0.497  0.516  0.430  0.426  0.413  0.406  0.394  0.000  0.000
 1999 267    35   169      0      0     67     1    42   125  0.468  0.495  0.514  0.429  0.426  0.413  0.406  0.394  0.000  0.000
 1999 268    36   169      0      0     67     1    42   125  0.467  0.494  0.512  0.428  0.426  0.413  0.406  0.394  0.000  0.000
 1999 269    37   168      0      0     67     1    42   125  0.466  0.492  0.511  0.427  0.425  0.413  0.406  0.394  0.000  0.000
 1999 270    38   167      0      0     67     1    42   125  0.465  0.491  0.510  0.426  0.425  0.413  0.406  0.394  0.000  0.000
 1999 271    39   167      0      0     67     1    42   125  0.464  0.490  0.508  0.426  0.425  0.413  0.406  0.394  0.000  0.000
 1999 272    40   166      0      0     67     1    42   125  0.463  0.488  0.507  0.425  0.424  0.413  0.406  0.394  0.000  0.000
 1999 273    41   167      0      0     70     1    42   125  0.483  0.487  0.506  0.424  0.424  0.413  0.406  0.394  0.000  0.000
 1999 274    42   183      0      0     88     1    42   125  0.542  0.570  0.540  0.423  0.424  0.413  0.406  0.394  0.000  0.000
 1999 275    43   179      0      0     88     1    42   125  0.468  0.558  0.541  0.430  0.423  0.413  0.405  0.394  0.000  0.000
 1999 276    44   176      0      0     88     1    42   125  0.454  0.529  0.540  0.434  0.423  0.413  0.405  0.394  0.000  0.000
 1999 277    45   175      0      0     88     1    42   125  0.463  0.517  0.535  0.433  0.424  0.413  0.405  0.394  0.000  0.000
 1999 278    46   173      0      0     88     1    42   125  0.465  0.511  0.531  0.433  0.424  0.413  0.405  0.394  0.000  0.000
 1999 279    47   176      0      0     94     1    42   125  0.528  0.517  0.528  0.432  0.424  0.413  0.405  0.394  0.000  0.000
 1999 280    48   184      0      0    103     1    42   125  0.529  0.573  0.538  0.432  0.424  0.413  0.405  0.394  0.000  0.000
 1999 281    49   183      0      0    105     1    42   125  0.512  0.557  0.546  0.434  0.424  0.413  0.405  0.394  0.000  0.000
 1999 282    50   179      0      0    105     1    42   125  0.474  0.538  0.544  0.438  0.426  0.413  0.405  0.394  0.000  0.000
 1999 283    51   176      0      0    105     1    42   125  0.445  0.524  0.539  0.438  0.426  0.413  0.405  0.394  0.000  0.000
 1999 284    52   176      0      0    107     1    42   125  0.491  0.513  0.535  0.437  0.426  0.413  0.405  0.393  0.000  0.000
 1999 285    53   207      0      0    140     1    42   125  0.547  0.568  0.565  0.469  0.460  0.432  0.415  0.397  0.000  0.000
 1999 286    54   222      0      7    163     1    42   125  0.535  0.568  0.568  0.470  0.460  0.447  0.439  0.432  0.000  0.000
 1999 287    55   206      0     21    163     1    42   125  0.511  0.554  0.557  0.457  0.449  0.436  0.427  0.417  0.000  0.000
 1999 288    56   195      0     30    163     1    42   125  0.484  0.537  0.551  0.449  0.441  0.429  0.419  0.408  0.000  0.000
 1999 289    57   187      0     34    163     1    42   125  0.456  0.524  0.543  0.445  0.437  0.425  0.415  0.403  0.000  0.000
 1999 290    58   182      0     37    163     1    42   125  0.455  0.515  0.537  0.441  0.434  0.422  0.412  0.400  0.000  0.000
 1999 291    59   179      0     38    163     1    42   125  0.456  0.509  0.532  0.439  0.433  0.421  0.410  0.398  0.000  0.000
 1999 292    60   178      0     38    163     1    42   125  0.456  0.504  0.528  0.438  0.432  0.421  0.410  0.398  0.000  0.000
 1999 293    61   176      0     38    163     1    42   125  0.456  0.500  0.524  0.436  0.432  0.420  0.410  0.398  0.000  0.000
 1999 294    62   175      0     38    163     1    42   125  0.456  0.497  0.521  0.435  0.432  0.420  0.410  0.397  0.000  0.000
 1999 295    63   174      0     38    163     1    42   125  0.455  0.494  0.518  0.433  0.431  0.420  0.409  0.397  0.000  0.000
 1999 296    64   173      0     38    163     1    42   125  0.454  0.491  0.515  0.432  0.430  0.420  0.409  0.397  0.000  0.000
 1999 297    65   172      0     38    163     1    42   125  0.453  0.489  0.513  0.431  0.430  0.419  0.409  0.397  0.000  0.000
 1999 298    66   170      0     38    163     1    42   125  0.452  0.487  0.510  0.429  0.429  0.419  0.409  0.397  0.000  0.000
 1999 299    67   169      0     38    163     1    42   125  0.450  0.484  0.507  0.428  0.428  0.418  0.409  0.397  0.000  0.000
 1999 300    68   167      0     38    163     1    42   125  0.447  0.481  0.504  0.426  0.427  0.418  0.408  0.397  0.000  0.000
 1999 301    69   166      0     38    163     1    42   125  0.445  0.478  0.501  0.425  0.426  0.417  0.408  0.396  0.000  0.000
 1999 302    70   164      0     38    163     1    42   125  0.441  0.474  0.497  0.423  0.425  0.416  0.407  0.396  0.000  0.000
 1999 303    71   162      0     38    163     1    42   125  0.439  0.471  0.495  0.421  0.424  0.416  0.407  0.396  0.000  0.000
 1999 304    72   161      0     38    163     1    42   125  0.436  0.468  0.491  0.419  0.423  0.415  0.406  0.396  0.000  0.000
 1999 305    73   159      0     38    163     1    42   125  0.433  0.465  0.489  0.418  0.422  0.415  0.406  0.395  0.000  0.000
 1999 306    74   157      0     38    163     1    42   125  0.430  0.461  0.484  0.416  0.420  0.413  0.405  0.395  0.000  0.000
 1999 307    75   154      0     38    163     1    42   125  0.426  0.456  0.480  0.413  0.418  0.412  0.404  0.394  0.000  0.000
 1999 308    76   153      0     38    163     1    42   125  0.423  0.454  0.478  0.412  0.417  0.412  0.404  0.394  0.000  0.000
 1999 309    77   150      0     38    163     1    42   125  0.419  0.449  0.473  0.409  0.415  0.410  0.403  0.394  0.000  0.000
 1999 310    78   147      0     38    163     1    42   125  0.415  0.443  0.467  0.406  0.413  0.408  0.401  0.393  0.000  0.000
 1999 311    79   145      0     38    164     1    42   125  0.422  0.440  0.463  0.405  0.411  0.407  0.401  0.392  0.000  0.000
 1999 312    80   142      0     38    164     1    42   125  0.416  0.437  0.458  0.402  0.409  0.406  0.400  0.392  0.000  0.000
 1999 313    81   139      0     38    164     1    42   125  0.410  0.433  0.453  0.399  0.407  0.404  0.398  0.391  0.000  0.000
 1999 314    82   136      0     38    164     1    42   125  0.404  0.430  0.446  0.396  0.404  0.403  0.397  0.390  0.000  0.000
 1999 315    83   159      0     38    164     2    72   125  0.495  0.564  0.494  0.394  0.402  0.401  0.396  0.389  0.000  0.000
 1999 316    84   153      0     38    164     2    72   125  0.461  0.523  0.498  0.393  0.399  0.400  0.395  0.388  0.000  0.000
 1999 317    85   147      0     38    164     2    72   125  0.429  0.499  0.491  0.392  0.397  0.398  0.393  0.387  0.000  0.000
 1999 318    86   142      0     38    164     2    72   125  0.419  0.481  0.483  0.391  0.396  0.397  0.392  0.386  0.000  0.000
 1999 319    87   136      0     38    164     2    72   125  0.408  0.465  0.472  0.389  0.393  0.395  0.390  0.385  0.000  0.000
 1999 320    88   131      0     38    164     2    72   125  0.398  0.450  0.461  0.387  0.391  0.393  0.389  0.383  0.000  0.000
 1999 321    89   126      0     38    164     2    72   125  0.388  0.437  0.450  0.385  0.389  0.392  0.387  0.382  0.000  0.000
 1999 322    90   150      0     38    164     3   101   125  0.517  0.560  0.492  0.383  0.388  0.390  0.386  0.381  0.000  0.000
 1999 323    91   144      0     38    164     3   101   125  0.482  0.527  0.494  0.383  0.386  0.389  0.386  0.380  0.000  0.000
 1999 324    92   139      0     38    164     3   101   125  0.466  0.503  0.487  0.383  0.385  0.388  0.385  0.379  0.000  0.000
 1999 325    93   133      0     38    164     3   101   125  0.418  0.486  0.478  0.382  0.384  0.387  0.383  0.378  0.000  0.000
 1999 326    94   126      0     38    164     3   101   125  0.402  0.464  0.464  0.381  0.382  0.385  0.382  0.377  0.000  0.000
 1999 327    95   124      0     38    165     3   101   125  0.404  0.454  0.459  0.380  0.382  0.385  0.382  0.377  0.000  0.000
 1999 328    96   119      0     38    165     3   101   125  0.390  0.440  0.447  0.378  0.380  0.384  0.380  0.376  0.000  0.000
 1999 329    97   162      0     38    185     4   131   125  0.531  0.558  0.558  0.437  0.379  0.383  0.379  0.375  0.000  0.000
 1999 330    98   162      0     38    187     4   131   125  0.549  0.547  0.552  0.440  0.384  0.382  0.379  0.374  0.000  0.000
 1999 331    99   157      0     38    187     4   131   125  0.496  0.538  0.540  0.435  0.391  0.381  0.379  0.374  0.000  0.000
 1999 332   100   149      0     38    187     4   131   125  0.460  0.517  0.528  0.430  0.390  0.381  0.378  0.373  0.000  0.000
 1999 333   101   142      0     38    187     4   131   125  0.441  0.497  0.513  0.423  0.389  0.380  0.377  0.372  0.000  0.000
 1999 334   102   135      0     38    187     4   131   125  0.402  0.479  0.499  0.416  0.387  0.378  0.376  0.371  0.000  0.000
 1999 335   103   130      0     38    187     4   131   125  0.390  0.467  0.490  0.412  0.386  0.378  0.375  0.370  0.000  0.000
 1999 336   104   142      0     38    200     4   131   125  0.566  0.507  0.485  0.409  0.386  0.378  0.375  0.370  0.000  0.000
 1999 337   105   142      0     38    205     4   131   125  0.505  0.548  0.485  0.406  0.386  0.377  0.374  0.369  0.000  0.000
 1999 338   106   135      0     38    205     4   131   125  0.468  0.513  0.481  0.401  0.385  0.376  0.374  0.369  0.000  0.000
 1999 339   107   136      0     38    209     4   131   125  0.547  0.500  0.479  0.398  0.384  0.376  0.373  0.368  0.000  0.000
 1999 340   108   130      0     38    209     4   131   125  0.461  0.500  0.473  0.395  0.383  0.375  0.373  0.368  0.000  0.000
 1999 341   109   125      0     38    209     4   131   125  0.431  0.484  0.467  0.392  0.382  0.375  0.372  0.367  0.000  0.000
 1999 342   110   118      0     38    209     4   131   125  0.402  0.463  0.455  0.388  0.380  0.374  0.371  0.366  0.000  0.000
 1999 343   111   111      0     38    209     4   131   125  0.360  0.445  0.442  0.384  0.379  0.373  0.370  0.366  0.000  0.000
 1999 344   112   135      0     38    209     5   162   125  0.520  0.550  0.485  0.381  0.377  0.372  0.370  0.365  0.000  0.000
 1999 345   113   129      0     38    209     5   162   125  0.484  0.519  0.483  0.380  0.376  0.372  0.369  0.364  0.000  0.000
 1999 346   114   142      0     38    225     5   162   125  0.555  0.551  0.525  0.380  0.376  0.371  0.369  0.364  0.000  0.000
 1999 347   115   141      0     38    228     5   162   125  0.534  0.551  0.528  0.382  0.375  0.371  0.368  0.364  0.000  0.000
 1999 348   116   134      0     38    228     5   162   125  0.475  0.529  0.518  0.383  0.374  0.370  0.368  0.363  0.000  0.000
 1999 349   117   127      0     38    228     5   162   125  0.443  0.501  0.502  0.382  0.373  0.370  0.367  0.362  0.000  0.000
 1999 350   118   119      0     38    228     5   162   125  0.392  0.480  0.487  0.381  0.372  0.369  0.366  0.362  0.000  0.000
 1999 351   119   112      0     38    228     5   162   125  0.379  0.455  0.468  0.379  0.371  0.368  0.365  0.361  0.000  0.000
 1999 352   120   105      0     38    228     5   162   125  0.367  0.436  0.451  0.376  0.370  0.367  0.365  0.360  0.000  0.000
 1999 353   121   129      0     38    228     6   192   125  0.518  0.555  0.483  0.374  0.368  0.366  0.364  0.359  0.000  0.000
 1999 354   122   122      0     38    228     6   192   125  0.469  0.518  0.480  0.374  0.368  0.366  0.363  0.359  0.000  0.000
 1999 355   123   116      0     38    228     6   192   125  0.454  0.492  0.470  0.373  0.367  0.365  0.363  0.358  0.000  0.000
 1999 356   124   109      0     38    228     6   192   125  0.402  0.471  0.457  0.372  0.366  0.365  0.362  0.358  0.000  0.000
 1999 357   125   102      0     38    228     6   192   125  0.384  0.447  0.440  0.370  0.365  0.364  0.361  0.357  0.000  0.000
 1999 358   126   125      0     38    228     7   223   125  0.517  0.549  0.487  0.368  0.364  0.363  0.361  0.357  0.000  0.000
 1999 359   127   117      0     38    228     7   223   125  0.455  0.512  0.478  0.368  0.363  0.362  0.360  0.356  0.000  0.000
 1999 360   128   110      0     38    228     7   223   125  0.412  0.486  0.467  0.368  0.363  0.362  0.360  0.356  0.000  0.000
 1999 361   129   104      0     38    229     7   223   125  0.395  0.464  0.455  0.367  0.362  0.362  0.359  0.355  0.000  0.000
 1999 362   130   103      0     38    230     7   223   125  0.408  0.454  0.450  0.367  0.362  0.361  0.359  0.355  0.000  0.000
 1999 363   131   103      0     38    234     7   223   125  0.455  0.444  0.444  0.367  0.362  0.361  0.359  0.355  0.000  0.000
 1999 364   132   101      0     38    234     7   223   125  0.432  0.442  0.441  0.367  0.362  0.361  0.359  0.354  0.000  0.000
 1999 365   133    95      0     38    234     7   223   125  0.394  0.426  0.426  0.365  0.361  0.360  0.358  0.354  0.000  0.000
 2000 001   134   121      0     38    234     8   256   125  0.506  0.555  0.483  0.363  0.360  0.359  0.357  0.353  0.000  0.000
 2000 002   135   114      0     38    234     8   256   125  0.465  0.515  0.480  0.363  0.359  0.359  0.357  0.353  0.000  0.000
 2000 003   136   107      0     38    234     8   256   125  0.410  0.489  0.468  0.364  0.359  0.359  0.357  0.352  0.000  0.000
 2000 004   137   100      0     38    234     8   256   125  0.396  0.462  0.452  0.363  0.358  0.358  0.356  0.352  0.000  0.000
 2000 005   138    94      0     38    234     8   256   125  0.382  0.439  0.435  0.362  0.357  0.357  0.356  0.351  0.000  0.000
 2000 006   139   118      0     38    234     9   287   125  0.502  0.548  0.484  0.361  0.356  0.357  0.355  0.351  0.000  0.000
 2000 007   140   110      0     38    234     9   287   125  0.454  0.508  0.474  0.361  0.356  0.356  0.355  0.350  0.000  0.000
 2000 008   141   100      0     38    234     9   287   125  0.400  0.476  0.455  0.361  0.355  0.356  0.354  0.350  0.000  0.000
 2000 009   142    95      0     38    234     9   287   125  0.384  0.454  0.442  0.360  0.355  0.355  0.354  0.349  0.000  0.000
 2000 010   143    90      0     38    235     9   287   125  0.371  0.433  0.428  0.359  0.354  0.355  0.353  0.349  0.000  0.000
 2000 011   144   115      0     38    235    10   321   125  0.498  0.549  0.482  0.358  0.353  0.354  0.352  0.348  0.000  0.000
 2000 012   145   108      0     38    235    10   321   125  0.463  0.510  0.474  0.358  0.353  0.354  0.352  0.348  0.000  0.000
 2000 013   146   107      0     38    243    10   321   125  0.492  0.512  0.462  0.359  0.353  0.353  0.352  0.348  0.000  0.000
 2000 014   147   133      0     38    271    10   321   125  0.555  0.555  0.565  0.375  0.353  0.353  0.352  0.348  0.000  0.000
 2000 015   148   127      0     38    271    10   321   125  0.489  0.541  0.543  0.392  0.353  0.353  0.352  0.347  0.000  0.000
 2000 016   149   133      0     38    282    10   321   125  0.522  0.554  0.549  0.406  0.353  0.353  0.351  0.347  0.000  0.000
 2000 017   150   130      0     38    282    10   321   125  0.513  0.537  0.540  0.412  0.354  0.353  0.351  0.347  0.000  0.000
 2000 018   151   123      0     38    282    10   321   125  0.460  0.519  0.524  0.408  0.355  0.353  0.351  0.347  0.000  0.000
 2000 019   152   116      0     38    282    10   321   125  0.422  0.497  0.509  0.403  0.355  0.352  0.351  0.346  0.000  0.000
 2000 020   153   109      0     38    282    10   321   125  0.410  0.475  0.491  0.397  0.356  0.352  0.350  0.346  0.000  0.000
 2000 021   154   104      0     38    282    10   321   125  0.399  0.459  0.478  0.392  0.356  0.352  0.350  0.346  0.000  0.000
 2000 022   155   101      0     38    282    10   321   125  0.389  0.450  0.471  0.390  0.356  0.352  0.350  0.346  0.000  0.000
 2000 023   156    96      0     38    282    10   321   125  0.380  0.433  0.455  0.386  0.356  0.351  0.350  0.345  0.000  0.000
 2000 024   157   120      0     38    282    11   350   125  0.521  0.561  0.490  0.383  0.356  0.351  0.349  0.345  0.000  0.000
 2000 025   158   113      0     38    282    11   350   125  0.457  0.525  0.489  0.382  0.356  0.351  0.349  0.345  0.000  0.000
 2000 026   159   106      0     38    282    11   350   125  0.413  0.495  0.479  0.380  0.356  0.351  0.349  0.344  0.000  0.000
 2000 027   160   101      0     38    282    11   350   125  0.402  0.471  0.466  0.378  0.356  0.350  0.349  0.344  0.000  0.000
 2000 028   161    96      0     38    282    11   350   125  0.391  0.453  0.454  0.377  0.356  0.350  0.348  0.344  0.000  0.000
 2000 029   162    92      0     38    282    11   350   125  0.380  0.438  0.443  0.375  0.356  0.350  0.348  0.344  0.000  0.000
 2000 030   163   150      0     38    312    12   381   125  0.527  0.563  0.565  0.469  0.391  0.350  0.348  0.344  0.000  0.000
 2000 031   164   146      0     38    312    12   381   125  0.479  0.546  0.554  0.454  0.419  0.350  0.348  0.343  0.000  0.000
 2000 032   165   143      0     38    312    12   381   125  0.482  0.526  0.545  0.447  0.430  0.351  0.348  0.343  0.000  0.000
 2000 033   166   141      0     38    312    12   381   125  0.459  0.520  0.539  0.443  0.430  0.352  0.348  0.343  0.000  0.000
 2000 034   167   147      0     38    323    12   381   125  0.509  0.559  0.541  0.441  0.432  0.353  0.348  0.343  0.000  0.000
 2000 035   168   142      0     38    323    12   381   125  0.440  0.537  0.540  0.439  0.430  0.356  0.348  0.343  0.000  0.000
 2000 036   169   139      0     38    323    12   381   125  0.451  0.517  0.535  0.438  0.429  0.356  0.348  0.343  0.000  0.000
 2000 037   170   137      0     38    323    12   381   125  0.453  0.508  0.529  0.436  0.427  0.356  0.348  0.343  0.000  0.000

*DSSAT Cropping System Model Ver. 4.0.2.000               Aug 23, 2016; 18:13:15

*RUN   2        : UYSB                    
 MODEL          : CRGRO040 - Soybean         
 EXPERIMENT     : UYSB0297 SB    late to create DSS                             
 TREATMENT  1   : UYSB                    

@YEAR DOY   DAS  SWXD   ROFC   DRNC   PREC  IR#C  IRRC  DTWT   SW1D   SW2D   SW3D   SW4D   SW5D   SW6D   SW7D   SW8D   SW9D   SW10
 2000 232     0   115      0      0      0     0     0   125  0.332  0.394  0.394  0.335  0.375  0.419  0.408  0.395  0.000  0.000
 2000 233     1   120      0      0      6     0     0   125  0.432  0.392  0.394  0.335  0.376  0.418  0.408  0.395  0.000  0.000
 2000 234     2   122      0      0     10     0     0   125  0.467  0.394  0.394  0.336  0.376  0.418  0.408  0.395  0.000  0.000
 2000 235     3   158      0      0     12     1    37   125  0.510  0.572  0.502  0.336  0.377  0.417  0.408  0.395  0.000  0.000
 2000 236     4   161      0      0     17     1    37   125  0.549  0.551  0.520  0.339  0.377  0.417  0.408  0.395  0.000  0.000
 2000 237     5   179      0      0     37     1    37   125  0.543  0.563  0.568  0.410  0.378  0.416  0.408  0.395  0.000  0.000
 2000 238     6   178      0      0     37     1    37   125  0.520  0.554  0.555  0.428  0.379  0.416  0.408  0.395  0.000  0.000
 2000 239     7   175      0      0     37     1    37   125  0.468  0.540  0.549  0.436  0.381  0.415  0.408  0.395  0.000  0.000
 2000 240     8   172      0      0     37     1    37   125  0.465  0.524  0.542  0.437  0.384  0.415  0.408  0.395  0.000  0.000
 2000 241     9   170      0      0     37     1    37   125  0.457  0.517  0.537  0.435  0.387  0.415  0.408  0.395  0.000  0.000
 2000 242    10   169      0      0     37     1    37   125  0.458  0.511  0.533  0.433  0.389  0.415  0.408  0.395  0.000  0.000
 2000 243    11   168      0      0     37     1    37   125  0.459  0.506  0.529  0.431  0.391  0.414  0.407  0.395  0.000  0.000
 2000 244    12   167      0      0     37     1    37   125  0.460  0.503  0.525  0.430  0.392  0.414  0.407  0.395  0.000  0.000
 2000 245    13   166      0      0     37     1    37   125  0.461  0.500  0.522  0.428  0.394  0.414  0.407  0.395  0.000  0.000
 2000 246    14   166      0      0     37     1    37   125  0.461  0.498  0.519  0.427  0.395  0.413  0.407  0.395  0.000  0.000
 2000 247    15   165      0      0     37     1    37   125  0.461  0.496  0.517  0.425  0.397  0.413  0.407  0.395  0.000  0.000
 2000 248    16   164      0      0     37     1    37   125  0.460  0.494  0.515  0.424  0.398  0.413  0.407  0.395  0.000  0.000
 2000 249    17   164      0      0     37     1    37   125  0.460  0.492  0.512  0.423  0.399  0.413  0.407  0.395  0.000  0.000
 2000 250    18   163      0      0     37     1    37   125  0.460  0.490  0.510  0.422  0.400  0.413  0.407  0.395  0.000  0.000
 2000 251    19   163      0      0     37     1    37   125  0.459  0.489  0.508  0.421  0.401  0.413  0.407  0.395  0.000  0.000
 2000 252    20   162      0      0     37     1    37   125  0.458  0.487  0.507  0.420  0.402  0.412  0.407  0.395  0.000  0.000
 2000 253    21   173      0      0     49     1    37   125  0.549  0.547  0.508  0.419  0.403  0.412  0.407  0.395  0.000  0.000
 2000 254    22   214      1      1     95     1    37   125  0.512  0.561  0.573  0.469  0.461  0.447  0.428  0.403  0.000  0.000
 2000 255    23   200      1     13     95     1    37   125  0.496  0.541  0.560  0.457  0.449  0.436  0.420  0.400  0.000  0.000
 2000 256    24   192      1     19     95     1    37   125  0.495  0.529  0.550  0.449  0.442  0.429  0.415  0.398  0.000  0.000
 2000 257    25   212      1     20    117     1    37   125  0.563  0.565  0.564  0.470  0.460  0.437  0.424  0.404  0.000  0.000
 2000 258    26   220      1     23    129     1    37   125  0.544  0.568  0.568  0.470  0.460  0.447  0.439  0.418  0.000  0.000
 2000 259    27   205      1     36    129     1    37   125  0.513  0.557  0.557  0.457  0.449  0.436  0.427  0.409  0.000  0.000
 2000 260    28   194      1     44    129     1    37   125  0.480  0.539  0.551  0.449  0.442  0.429  0.419  0.403  0.000  0.000
 2000 261    29   188      1     49    129     1    37   125  0.478  0.525  0.544  0.445  0.437  0.425  0.415  0.400  0.000  0.000
 2000 262    30   204      1     50    148     1    37   125  0.557  0.565  0.564  0.469  0.447  0.426  0.417  0.402  0.000  0.000
 2000 263    31   220      1     64    182     1    37   125  0.499  0.568  0.568  0.470  0.460  0.447  0.439  0.432  0.000  0.000
 2000 264    32   221      1     69    190     1    37   125  0.541  0.559  0.568  0.470  0.460  0.445  0.439  0.432  0.000  0.000
 2000 265    33   205      1     83    190     1    37   125  0.502  0.552  0.557  0.457  0.449  0.435  0.427  0.417  0.000  0.000
 2000 266    34   193      1     91    190     1    37   125  0.459  0.534  0.550  0.449  0.442  0.428  0.419  0.408  0.000  0.000
 2000 267    35   191      1     93    192     1    37   125  0.499  0.520  0.542  0.447  0.441  0.427  0.420  0.408  0.000  0.000
 2000 268    36   186      1     96    192     1    37   125  0.470  0.520  0.538  0.443  0.437  0.424  0.415  0.403  0.000  0.000
 2000 269    37   182      1     98    192     1    37   125  0.469  0.514  0.534  0.440  0.434  0.422  0.412  0.400  0.000  0.000
 2000 270    38   180      1     99    192     1    37   125  0.469  0.510  0.530  0.439  0.433  0.422  0.411  0.398  0.000  0.000
 2000 271    39   179      1     99    192     1    37   125  0.469  0.506  0.528  0.438  0.433  0.422  0.411  0.398  0.000  0.000
 2000 272    40   178      1     99    192     1    37   125  0.468  0.504  0.525  0.437  0.433  0.422  0.410  0.398  0.000  0.000
 2000 273    41   177      1     99    192     1    37   125  0.468  0.501  0.523  0.436  0.433  0.422  0.410  0.398  0.000  0.000
 2000 274    42   188      1     99    207     1    37   125  0.489  0.566  0.542  0.436  0.433  0.422  0.410  0.398  0.000  0.000
 2000 275    43   184      1    100    207     1    37   125  0.464  0.537  0.542  0.438  0.432  0.422  0.410  0.398  0.000  0.000
 2000 276    44   212      1    101    238     1    37   125  0.553  0.563  0.566  0.470  0.460  0.440  0.424  0.403  0.000  0.000
 2000 277    45   218      1    103    247     1    37   125  0.520  0.568  0.568  0.470  0.460  0.447  0.438  0.412  0.000  0.000
 2000 278    46   201      1    116    247     1    37   125  0.459  0.548  0.557  0.457  0.449  0.436  0.426  0.405  0.000  0.000
 2000 279    47   190      1    123    247     1    37   125  0.445  0.525  0.548  0.449  0.441  0.429  0.419  0.401  0.000  0.000
 2000 280    48   184      1    127    247     1    37   125  0.453  0.515  0.540  0.445  0.437  0.425  0.414  0.399  0.000  0.000
 2000 281    49   181      1    129    247     1    37   125  0.456  0.509  0.534  0.441  0.435  0.422  0.412  0.397  0.000  0.000
 2000 282    50   181      1    130    253     1    37   125  0.488  0.512  0.530  0.439  0.434  0.422  0.412  0.398  0.000  0.000
 2000 283    51   199      1    130    273     1    37   125  0.548  0.566  0.566  0.457  0.441  0.422  0.413  0.399  0.000  0.000
 2000 284    52   189      1    135    273     1    37   125  0.448  0.556  0.556  0.449  0.437  0.421  0.411  0.397  0.000  0.000
 2000 285    53   183      1    138    273     1    37   125  0.439  0.527  0.548  0.444  0.434  0.421  0.411  0.397  0.000  0.000
 2000 286    54   181      1    139    273     1    37   125  0.449  0.515  0.539  0.442  0.433  0.421  0.411  0.397  0.000  0.000
 2000 287    55   179      1    139    273     1    37   125  0.454  0.509  0.534  0.439  0.433  0.421  0.410  0.397  0.000  0.000
 2000 288    56   178      1    139    273     1    37   125  0.457  0.505  0.530  0.438  0.433  0.421  0.410  0.397  0.000  0.000
 2000 289    57   179      1    139    277     1    37   125  0.504  0.502  0.527  0.437  0.432  0.420  0.410  0.397  0.000  0.000
 2000 290    58   185      1    139    284     1    37   125  0.517  0.551  0.526  0.436  0.432  0.420  0.410  0.397  0.000  0.000
 2000 291    59   182      1    139    284     1    37   125  0.486  0.533  0.531  0.435  0.432  0.420  0.410  0.397  0.000  0.000
 2000 292    60   180      1    139    284     1    37   125  0.482  0.521  0.530  0.435  0.432  0.420  0.410  0.397  0.000  0.000
 2000 293    61   192      1    139    300     1    37   125  0.526  0.563  0.558  0.443  0.433  0.421  0.410  0.397  0.000  0.000
 2000 294    62   188      1    141    300     1    37   125  0.503  0.547  0.552  0.441  0.433  0.421  0.410  0.397  0.000  0.000
 2000 295    63   184      1    142    300     1    37   125  0.465  0.532  0.545  0.440  0.433  0.421  0.410  0.397  0.000  0.000
 2000 296    64   217      1    143    336     1    37   125  0.550  0.564  0.564  0.470  0.460  0.447  0.434  0.407  0.000  0.000
 2000 297    65   213      1    145    336     1    37   125  0.519  0.557  0.559  0.464  0.459  0.441  0.438  0.415  0.000  0.000
 2000 298    66   200      1    156    336     1    37   125  0.505  0.541  0.552  0.453  0.448  0.432  0.426  0.407  0.000  0.000
 2000 299    67   220      2    179    382     1    37   125  0.526  0.561  0.565  0.470  0.460  0.447  0.439  0.432  0.000  0.000
 2000 300    68   221      2    191    398     1    37   125  0.530  0.560  0.567  0.470  0.460  0.447  0.439  0.432  0.000  0.000
 2000 301    69   201      2    205    398     1    37   125  0.444  0.545  0.555  0.456  0.448  0.435  0.426  0.417  0.000  0.000
 2000 302    70   189      2    213    398     1    37   125  0.448  0.521  0.544  0.448  0.440  0.428  0.418  0.408  0.000  0.000
 2000 303    71   183      2    217    398     1    37   125  0.450  0.511  0.536  0.443  0.436  0.424  0.414  0.402  0.000  0.000
 2000 304    72   178      2    219    398     1    37   125  0.450  0.504  0.529  0.439  0.433  0.421  0.411  0.399  0.000  0.000
 2000 305    73   175      2    219    398     1    37   125  0.448  0.497  0.523  0.437  0.432  0.420  0.410  0.397  0.000  0.000
 2000 306    74   189      2    219    413     1    37   125  0.553  0.565  0.533  0.435  0.431  0.420  0.410  0.397  0.000  0.000
 2000 307    75   184      2    219    413     1    37   125  0.474  0.551  0.541  0.434  0.431  0.419  0.410  0.397  0.000  0.000
 2000 308    76   178      2    219    413     1    37   125  0.449  0.525  0.536  0.434  0.429  0.418  0.409  0.396  0.000  0.000
 2000 309    77   175      2    219    413     1    37   125  0.445  0.511  0.530  0.433  0.428  0.418  0.408  0.396  0.000  0.000
 2000 310    78   172      2    219    413     1    37   125  0.442  0.500  0.522  0.431  0.426  0.416  0.407  0.396  0.000  0.000
 2000 311    79   168      2    219    413     1    37   125  0.438  0.492  0.515  0.428  0.425  0.415  0.406  0.395  0.000  0.000
 2000 312    80   168      2    219    415     1    37   125  0.461  0.486  0.511  0.427  0.424  0.414  0.406  0.395  0.000  0.000
 2000 313    81   165      2    219    415     1    37   125  0.447  0.483  0.507  0.425  0.423  0.414  0.405  0.395  0.000  0.000
 2000 314    82   163      2    219    415     1    37   125  0.440  0.480  0.504  0.423  0.422  0.413  0.405  0.394  0.000  0.000
 2000 315    83   160      2    219    415     1    37   125  0.432  0.474  0.497  0.421  0.420  0.412  0.404  0.394  0.000  0.000
 2000 316    84   178      2    219    438     1    37   125  0.513  0.562  0.538  0.418  0.418  0.410  0.403  0.393  0.000  0.000
 2000 317    85   172      2    219    438     1    37   125  0.474  0.537  0.537  0.419  0.417  0.409  0.402  0.393  0.000  0.000
 2000 318    86   168      2    219    438     1    37   125  0.461  0.519  0.530  0.419  0.415  0.408  0.402  0.392  0.000  0.000
 2000 319    87   164      2    219    438     1    37   125  0.447  0.506  0.521  0.418  0.414  0.407  0.400  0.392  0.000  0.000
 2000 320    88   160      2    219    438     1    37   125  0.439  0.495  0.513  0.416  0.412  0.406  0.399  0.391  0.000  0.000
 2000 321    89   155      2    219    438     1    37   125  0.432  0.484  0.504  0.414  0.409  0.404  0.398  0.390  0.000  0.000
 2000 322    90   150      2    219    438     1    37   125  0.424  0.473  0.495  0.410  0.407  0.402  0.396  0.389  0.000  0.000
 2000 323    91   145      2    219    438     1    37   125  0.416  0.462  0.485  0.406  0.403  0.400  0.395  0.388  0.000  0.000
 2000 324    92   142      2    219    441     1    37   125  0.434  0.452  0.475  0.402  0.401  0.398  0.393  0.387  0.000  0.000
 2000 325    93   137      2    219    441     1    37   125  0.417  0.443  0.466  0.398  0.398  0.397  0.392  0.386  0.000  0.000
 2000 326    94   132      2    219    441     1    37   125  0.404  0.434  0.455  0.394  0.395  0.395  0.390  0.384  0.000  0.000
 2000 327    95   127      2    219    441     1    37   125  0.394  0.428  0.446  0.391  0.393  0.393  0.389  0.383  0.000  0.000
 2000 328    96   174      2    219    464     2    67   125  0.512  0.563  0.559  0.457  0.406  0.392  0.387  0.382  0.000  0.000
 2000 329    97   171      2    219    464     2    67   125  0.502  0.538  0.548  0.447  0.426  0.391  0.387  0.382  0.000  0.000
 2000 330    98   165      2    219    464     2    67   125  0.476  0.522  0.535  0.440  0.428  0.391  0.386  0.381  0.000  0.000
 2000 331    99   158      2    219    464     2    67   125  0.435  0.507  0.524  0.435  0.424  0.390  0.385  0.380  0.000  0.000
 2000 332   100   155      2    219    464     2    67   125  0.433  0.496  0.518  0.433  0.423  0.390  0.385  0.379  0.000  0.000
 2000 333   101   154      2    219    465     2    67   125  0.444  0.489  0.514  0.430  0.422  0.390  0.384  0.379  0.000  0.000
 2000 334   102   150      2    219    465     2    67   125  0.432  0.483  0.508  0.428  0.420  0.389  0.384  0.378  0.000  0.000
 2000 335   103   145      2    219    465     2    67   125  0.422  0.471  0.497  0.422  0.416  0.388  0.383  0.377  0.000  0.000
 2000 336   104   140      2    219    465     2    67   125  0.413  0.460  0.487  0.417  0.412  0.387  0.382  0.376  0.000  0.000
 2000 337   105   134      2    219    465     2    67   125  0.404  0.448  0.475  0.412  0.407  0.386  0.381  0.375  0.000  0.000
 2000 338   106   144      2    219    479     2    67   125  0.536  0.499  0.469  0.408  0.405  0.385  0.380  0.375  0.000  0.000
 2000 339   107   141      2    219    479     2    67   125  0.489  0.502  0.470  0.406  0.403  0.385  0.380  0.374  0.000  0.000
 2000 340   108   135      2    219    479     2    67   125  0.438  0.488  0.465  0.402  0.400  0.384  0.379  0.374  0.000  0.000
 2000 341   109   129      2    219    479     2    67   125  0.393  0.472  0.459  0.398  0.398  0.384  0.378  0.373  0.000  0.000
 2000 342   110   122      2    219    479     2    67   125  0.373  0.454  0.449  0.393  0.394  0.382  0.377  0.372  0.000  0.000
 2000 343   111   118      2    219    479     2    67   125  0.359  0.439  0.440  0.390  0.392  0.382  0.377  0.371  0.000  0.000
 2000 344   112   142      2    219    479     3    99   125  0.511  0.553  0.486  0.386  0.389  0.380  0.376  0.370  0.000  0.000
 2000 345   113   136      2    219    479     3    99   125  0.481  0.519  0.486  0.385  0.387  0.379  0.375  0.370  0.000  0.000
 2000 346   114   132      2    219    479     3    99   125  0.469  0.499  0.480  0.384  0.386  0.379  0.374  0.369  0.000  0.000
 2000 347   115   126      2    219    479     3    99   125  0.426  0.483  0.472  0.383  0.384  0.378  0.374  0.369  0.000  0.000
 2000 348   116   178      2    219    538     3    99   125  0.518  0.549  0.556  0.468  0.459  0.394  0.373  0.368  0.000  0.000
 2000 349   117   173      2    219    538     3    99   125  0.486  0.530  0.544  0.453  0.445  0.409  0.373  0.367  0.000  0.000
 2000 350   118   177      2    219    547     3    99   125  0.536  0.556  0.540  0.447  0.441  0.411  0.373  0.367  0.000  0.000
 2000 351   119   170      2    219    547     3    99   125  0.481  0.540  0.535  0.440  0.434  0.414  0.373  0.367  0.000  0.000
 2000 352   120   163      2    219    547     3    99   125  0.469  0.515  0.525  0.436  0.430  0.411  0.372  0.366  0.000  0.000
 2000 353   121   156      2    219    547     3    99   125  0.429  0.500  0.515  0.431  0.426  0.408  0.372  0.365  0.000  0.000
 2000 354   122   150      2    219    547     3    99   125  0.418  0.484  0.505  0.427  0.423  0.406  0.372  0.365  0.000  0.000
 2000 355   123   147      2    219    550     3    99   125  0.444  0.472  0.495  0.422  0.419  0.403  0.372  0.364  0.000  0.000
 2000 356   124   149      2    219    554     3    99   125  0.511  0.469  0.492  0.420  0.418  0.402  0.372  0.364  0.000  0.000
 2000 357   125   142      2    219    554     3    99   125  0.439  0.469  0.484  0.416  0.414  0.400  0.372  0.364  0.000  0.000
 2000 358   126   143      2    219    558     3    99   125  0.508  0.464  0.480  0.413  0.413  0.399  0.372  0.364  0.000  0.000
 2000 359   127   137      2    219    558     3    99   125  0.433  0.465  0.474  0.409  0.410  0.397  0.371  0.363  0.000  0.000
 2000 360   128   130      2    219    558     3    99   125  0.403  0.452  0.464  0.404  0.405  0.395  0.371  0.363  0.000  0.000
 2000 361   129   160      2    219    596     3    99   125  0.504  0.555  0.558  0.416  0.401  0.393  0.370  0.362  0.000  0.000
 2000 362   130   177      2    219    615     3    99   125  0.564  0.557  0.563  0.470  0.433  0.393  0.371  0.362  0.000  0.000
 2000 363   131   174      2    219    615     3    99   125  0.519  0.547  0.551  0.456  0.431  0.407  0.370  0.362  0.000  0.000
 2000 364   132   174      2    219    619     3    99   125  0.550  0.542  0.546  0.450  0.435  0.408  0.371  0.362  0.000  0.000
 2000 365   133   167      2    219    619     3    99   125  0.481  0.535  0.537  0.442  0.430  0.410  0.370  0.361  0.000  0.000
 2000 366   134   160      2    219    619     3    99   125  0.456  0.514  0.526  0.436  0.427  0.408  0.370  0.361  0.000  0.000
 2001 001   135   153      2    219    619     3    99   125  0.420  0.497  0.515  0.431  0.424  0.405  0.370  0.361  0.000  0.000
 2001 002   136   146      2    219    619     3    99   125  0.410  0.480  0.503  0.426  0.420  0.401  0.370  0.360  0.000  0.000
 2001 003   137   140      2    219    619     3    99   125  0.401  0.465  0.491  0.420  0.415  0.399  0.369  0.360  0.000  0.000
 2001 004   138   147      2    219    631     3    99   125  0.532  0.494  0.484  0.416  0.413  0.397  0.369  0.359  0.000  0.000
 2001 005   139   139      2    219    631     3    99   125  0.433  0.493  0.479  0.412  0.409  0.395  0.369  0.359  0.000  0.000
 2001 006   140   135      2    219    635     3    99   125  0.450  0.475  0.472  0.408  0.406  0.394  0.369  0.359  0.000  0.000
 2001 007   141   180      2    219    682     3    99   125  0.545  0.561  0.566  0.468  0.448  0.399  0.369  0.359  0.000  0.000
 2001 008   142   175      2    219    682     3    99   125  0.495  0.549  0.551  0.454  0.439  0.415  0.369  0.358  0.000  0.000
 2001 009   143   190      2    219    703     3    99   125  0.519  0.554  0.561  0.467  0.458  0.429  0.382  0.358  0.000  0.000
 2001 010   144   205      2    219    721     3    99   125  0.564  0.557  0.566  0.469  0.460  0.446  0.414  0.363  0.000  0.000
 2001 011   145   194      2    224    721     3    99   125  0.483  0.545  0.550  0.454  0.446  0.433  0.410  0.395  0.000  0.000
 2001 012   146   183      2    228    721     3    99   125  0.464  0.522  0.537  0.445  0.437  0.425  0.408  0.395  0.000  0.000
 2001 013   147   180      2    228    723     3    99   125  0.487  0.508  0.528  0.439  0.434  0.422  0.410  0.396  0.000  0.000
 2001 014   148   197      2    228    744     3    99   125  0.533  0.564  0.562  0.456  0.440  0.422  0.411  0.397  0.000  0.000
 2001 015   149   187      2    232    744     3    99   125  0.474  0.545  0.549  0.446  0.434  0.420  0.410  0.396  0.000  0.000
 2001 016   150   180      2    233    744     3    99   125  0.472  0.520  0.536  0.440  0.430  0.418  0.408  0.395  0.000  0.000
 2001 017   151   180      2    233    748     3    99   125  0.534  0.513  0.530  0.438  0.429  0.417  0.408  0.395  0.000  0.000
 2001 018   152   179      2    233    750     3    99   125  0.515  0.526  0.527  0.436  0.428  0.416  0.407  0.395  0.000  0.000
 2001 019   153   176      2    233    750     3    99   125  0.486  0.520  0.524  0.434  0.427  0.415  0.406  0.394  0.000  0.000
 2001 020   154   169      2    233    750     3    99   125  0.432  0.507  0.517  0.430  0.425  0.413  0.405  0.394  0.000  0.000
 2001 021   155   163      2    233    750     3    99   125  0.424  0.490  0.508  0.426  0.422  0.411  0.403  0.393  0.000  0.000
 2001 022   156   160      2    233    750     3    99   125  0.418  0.481  0.503  0.424  0.420  0.410  0.402  0.392  0.000  0.000
 2001 023   157   155      2    233    750     3    99   125  0.412  0.469  0.493  0.419  0.417  0.407  0.400  0.391  0.000  0.000
 2001 024   158   149      2    233    750     3    99   125  0.404  0.458  0.484  0.415  0.413  0.404  0.398  0.390  0.000  0.000
 2001 025   159   144      2    233    750     3    99   125  0.397  0.448  0.475  0.410  0.410  0.402  0.396  0.389  0.000  0.000
 2001 026   160   148      2    233    760     3    99   125  0.525  0.454  0.468  0.407  0.407  0.400  0.395  0.388  0.000  0.000
 2001 027   161   159      2    233    773     3    99   125  0.518  0.564  0.472  0.405  0.406  0.400  0.395  0.388  0.000  0.000
 2001 028   162   157      2    233    773     3    99   125  0.516  0.534  0.484  0.404  0.405  0.400  0.394  0.387  0.000  0.000
 2001 029   163   151      2    233    773     3    99   125  0.449  0.516  0.483  0.402  0.403  0.399  0.393  0.387  0.000  0.000
 2001 030   164   144      2    233    773     3    99   125  0.403  0.494  0.479  0.399  0.401  0.397  0.392  0.386  0.000  0.000
 2001 031   165   140      2    233    773     3    99   125  0.396  0.477  0.475  0.397  0.399  0.396  0.391  0.385  0.000  0.000
 2001 032   166   138      2    233    773     3    99   125  0.389  0.467  0.471  0.396  0.398  0.396  0.391  0.385  0.000  0.000
 2001 033   167   135      2    233    773     3    99   125  0.383  0.457  0.467  0.394  0.397  0.395  0.390  0.384  0.000  0.000
 2001 034   168   132      2    233    773     3    99   125  0.376  0.450  0.464  0.393  0.396  0.394  0.390  0.384  0.000  0.000
 2001 035   169   131      2    233    773     3    99   125  0.370  0.443  0.460  0.392  0.395  0.394  0.389  0.383  0.000  0.000
 2001 036   170   129      2    233    773     3    99   125  0.365  0.438  0.458  0.391  0.395  0.393  0.389  0.383  0.000  0.000
 2001 037   171   151      2    233    773     4   128   125  0.441  0.564  0.498  0.391  0.394  0.393  0.389  0.382  0.000  0.000
 2001 038   172   147      2    233    773     4   128   125  0.437  0.519  0.506  0.391  0.394  0.393  0.388  0.382  0.000  0.000
 2001 039   173   183      2    233    812     4   128   125  0.521  0.558  0.567  0.471  0.437  0.394  0.388  0.382  0.000  0.000

*DSSAT Cropping System Model Ver. 4.0.2.000               Aug 23, 2016; 18:13:15

*RUN   3        : UYSB                    
 MODEL          : CRGRO040 - Soybean         
 EXPERIMENT     : UYSB0297 SB    late to create DSS                             
 TREATMENT  1   : UYSB                    

@YEAR DOY   DAS  SWXD   ROFC   DRNC   PREC  IR#C  IRRC  DTWT   SW1D   SW2D   SW3D   SW4D   SW5D   SW6D   SW7D   SW8D   SW9D   SW10
 2001 232     0   115      0      0      0     0     0   125  0.330  0.394  0.394  0.335  0.375  0.419  0.408  0.395  0.000  0.000
 2001 233     1   112      0      0      0     0     0   125  0.277  0.392  0.394  0.335  0.376  0.418  0.408  0.395  0.000  0.000
 2001 234     2   110      0      0      1     0     0   125  0.242  0.391  0.394  0.336  0.376  0.418  0.408  0.395  0.000  0.000
 2001 235     3   155      0      0      1     1    46   125  0.548  0.566  0.473  0.336  0.377  0.417  0.408  0.395  0.000  0.000
 2001 236     4   153      0      0      1     1    46   125  0.506  0.547  0.485  0.338  0.377  0.417  0.408  0.395  0.000  0.000
 2001 237     5   150      0      0      1     1    46   125  0.470  0.523  0.490  0.341  0.378  0.416  0.408  0.395  0.000  0.000
 2001 238     6   163      0      0     17     1    46   125  0.528  0.556  0.535  0.343  0.378  0.416  0.408  0.395  0.000  0.000
 2001 239     7   160      0      0     17     1    46   125  0.485  0.542  0.535  0.348  0.378  0.415  0.408  0.395  0.000  0.000
 2001 240     8   158      0      0     17     1    46   125  0.488  0.525  0.529  0.352  0.379  0.415  0.408  0.395  0.000  0.000
 2001 241     9   156      0      0     17     1    46   125  0.463  0.517  0.524  0.356  0.379  0.415  0.408  0.395  0.000  0.000
 2001 242    10   157      0      0     21     1    46   125  0.518  0.508  0.518  0.359  0.380  0.414  0.408  0.395  0.000  0.000
 2001 243    11   181      0      0     46     1    46   125  0.531  0.572  0.564  0.423  0.380  0.414  0.407  0.395  0.000  0.000
 2001 244    12   224      8     28    126     1    46   125  0.560  0.572  0.566  0.470  0.462  0.447  0.439  0.432  0.000  0.000
 2001 245    13   222      8     45    143     1    46   125  0.544  0.568  0.568  0.470  0.460  0.447  0.439  0.432  0.000  0.000
 2001 246    14   219      8     50    145     1    46   125  0.543  0.562  0.563  0.465  0.460  0.442  0.439  0.432  0.000  0.000
 2001 247    15   205      8     62    145     1    46   125  0.521  0.554  0.555  0.454  0.448  0.433  0.427  0.417  0.000  0.000
 2001 248    16   195      8     70    145     1    46   125  0.501  0.540  0.550  0.448  0.441  0.427  0.419  0.408  0.000  0.000
 2001 249    17   193      8     72    147     1    46   125  0.526  0.530  0.544  0.446  0.440  0.426  0.419  0.408  0.000  0.000
 2001 250    18   222      8     92    198     1    46   125  0.545  0.570  0.565  0.470  0.460  0.447  0.439  0.432  0.000  0.000
 2001 251    19   204      8    106    198     1    46   125  0.457  0.559  0.556  0.457  0.449  0.436  0.427  0.417  0.000  0.000
 2001 252    20   194      8    115    198     1    46   125  0.481  0.529  0.549  0.449  0.442  0.429  0.419  0.408  0.000  0.000
 2001 253    21   186      8    119    198     1    46   125  0.457  0.521  0.542  0.445  0.437  0.425  0.415  0.403  0.000  0.000
 2001 254    22   182      8    122    198     1    46   125  0.458  0.514  0.537  0.442  0.435  0.423  0.412  0.400  0.000  0.000
 2001 255    23   182      8    123    201     1    46   125  0.495  0.509  0.532  0.439  0.434  0.422  0.412  0.400  0.000  0.000
 2001 256    24   180      8    123    201     1    46   125  0.478  0.511  0.530  0.438  0.433  0.422  0.411  0.398  0.000  0.000
 2001 257    25   179      8    123    201     1    46   125  0.473  0.508  0.527  0.437  0.433  0.422  0.411  0.398  0.000  0.000
 2001 258    26   180      8    123    202     1    46   125  0.495  0.506  0.525  0.436  0.433  0.422  0.411  0.398  0.000  0.000
 2001 259    27   179      8    123    202     1    46   125  0.482  0.507  0.523  0.435  0.433  0.422  0.411  0.398  0.000  0.000
 2001 260    28   178      8    123    202     1    46   125  0.477  0.505  0.522  0.434  0.432  0.422  0.411  0.398  0.000  0.000
 2001 261    29   177      8    123    202     1    46   125  0.475  0.503  0.520  0.433  0.432  0.422  0.411  0.398  0.000  0.000
 2001 262    30   176      8    123    202     1    46   125  0.473  0.501  0.519  0.433  0.432  0.422  0.411  0.398  0.000  0.000
 2001 263    31   176      8    123    202     1    46   125  0.472  0.499  0.517  0.432  0.432  0.422  0.411  0.398  0.000  0.000
 2001 264    32   175      8    123    202     1    46   125  0.471  0.497  0.516  0.431  0.431  0.422  0.411  0.398  0.000  0.000
 2001 265    33   175      8    123    202     1    46   125  0.470  0.496  0.514  0.430  0.431  0.422  0.411  0.398  0.000  0.000
 2001 266    34   174      8    123    202     1    46   125  0.469  0.494  0.513  0.429  0.430  0.422  0.411  0.398  0.000  0.000
 2001 267    35   175      8    123    206     1    46   125  0.495  0.494  0.512  0.429  0.430  0.422  0.411  0.398  0.000  0.000
 2001 268    36   182      8    123    215     1    46   125  0.538  0.548  0.513  0.428  0.430  0.422  0.411  0.398  0.000  0.000
 2001 269    37   181      8    123    215     1    46   125  0.511  0.538  0.519  0.428  0.429  0.422  0.411  0.398  0.000  0.000
 2001 270    38   190      8    123    226     1    46   125  0.557  0.557  0.551  0.432  0.429  0.422  0.411  0.398  0.000  0.000
 2001 271    39   189      8    124    226     1    46   125  0.520  0.551  0.547  0.439  0.431  0.422  0.411  0.398  0.000  0.000
 2001 272    40   221     10    147    286     1    46   125  0.529  0.559  0.568  0.470  0.460  0.447  0.439  0.432  0.000  0.000
 2001 273    41   222     10    165    307     1    46   125  0.548  0.562  0.568  0.470  0.460  0.447  0.439  0.432  0.000  0.000
 2001 274    42   229     18    228    387     1    46   125  0.554  0.576  0.585  0.491  0.460  0.447  0.439  0.432  0.000  0.000
 2001 275    43   222     18    237    390     1    46   125  0.532  0.568  0.568  0.470  0.460  0.447  0.439  0.432  0.000  0.000
 2001 276    44   218     18    241    393     1    46   125  0.540  0.558  0.563  0.465  0.460  0.442  0.439  0.432  0.000  0.000
 2001 277    45   213     18    245    395     1    46   125  0.506  0.555  0.558  0.461  0.457  0.438  0.439  0.430  0.000  0.000
 2001 278    46   198     18    257    395     1    46   125  0.459  0.536  0.551  0.452  0.447  0.430  0.427  0.416  0.000  0.000
 2001 279    47   188     18    263    395     1    46   125  0.445  0.521  0.543  0.446  0.440  0.426  0.419  0.408  0.000  0.000
 2001 280    48   215     18    265    425     1    46   125  0.553  0.566  0.563  0.469  0.460  0.441  0.429  0.412  0.000  0.000
 2001 281    49   201     18    276    425     1    46   125  0.496  0.556  0.555  0.457  0.449  0.432  0.421  0.405  0.000  0.000
 2001 282    50   198     18    278    426     1    46   125  0.498  0.534  0.551  0.453  0.448  0.430  0.423  0.407  0.000  0.000
 2001 283    51   188     18    283    426     1    46   125  0.458  0.526  0.544  0.447  0.441  0.426  0.417  0.402  0.000  0.000
 2001 284    52   183     18    286    426     1    46   125  0.459  0.516  0.538  0.443  0.437  0.423  0.413  0.399  0.000  0.000
 2001 285    53   180     18    288    426     1    46   125  0.461  0.511  0.534  0.440  0.434  0.421  0.411  0.398  0.000  0.000
 2001 286    54   179     18    289    426     1    46   125  0.462  0.506  0.529  0.439  0.433  0.421  0.410  0.398  0.000  0.000
 2001 287    55   177     18    289    426     1    46   125  0.462  0.503  0.526  0.438  0.433  0.421  0.410  0.397  0.000  0.000
 2001 288    56   197     18    289    447     1    46   125  0.550  0.565  0.565  0.451  0.437  0.421  0.411  0.398  0.000  0.000
 2001 289    57   198     18    289    451     1    46   125  0.521  0.568  0.565  0.455  0.442  0.422  0.412  0.398  0.000  0.000
 2001 290    58   210     18    290    468     1    46   125  0.511  0.559  0.567  0.470  0.460  0.439  0.424  0.404  0.000  0.000
 2001 291    59   196     18    300    468     1    46   125  0.473  0.539  0.557  0.457  0.448  0.431  0.417  0.400  0.000  0.000
 2001 292    60   187     18    306    468     1    46   125  0.458  0.523  0.546  0.449  0.441  0.426  0.413  0.398  0.000  0.000
 2001 293    61   189     18    306    475     1    46   125  0.500  0.537  0.539  0.445  0.440  0.425  0.415  0.400  0.000  0.000
 2001 294    62   183     18    309    475     1    46   125  0.466  0.526  0.535  0.441  0.436  0.422  0.412  0.398  0.000  0.000
 2001 295    63   180     18    309    475     1    46   125  0.467  0.514  0.531  0.439  0.433  0.422  0.410  0.398  0.000  0.000
 2001 296    64   178     18    309    475     1    46   125  0.464  0.507  0.527  0.437  0.433  0.421  0.410  0.397  0.000  0.000
 2001 297    65   176     18    309    475     1    46   125  0.461  0.502  0.522  0.435  0.432  0.420  0.409  0.397  0.000  0.000
 2001 298    66   174     18    309    475     1    46   125  0.458  0.497  0.518  0.433  0.431  0.420  0.409  0.397  0.000  0.000
 2001 299    67   216     18    311    520     1    46   125  0.545  0.565  0.565  0.469  0.460  0.447  0.431  0.406  0.000  0.000
 2001 300    68   222     19    348    567     1    46   125  0.537  0.567  0.567  0.470  0.460  0.447  0.439  0.432  0.000  0.000
 2001 301    69   222     19    360    580     1    46   125  0.541  0.565  0.567  0.470  0.460  0.447  0.439  0.432  0.000  0.000
 2001 302    70   222     19    366    588     1    46   125  0.537  0.567  0.567  0.469  0.460  0.447  0.439  0.432  0.000  0.000
 2001 303    71   201     19    380    588     1    46   125  0.449  0.552  0.555  0.456  0.447  0.435  0.426  0.417  0.000  0.000
 2001 304    72   188     19    388    588     1    46   125  0.429  0.522  0.543  0.447  0.439  0.427  0.418  0.408  0.000  0.000
 2001 305    73   180     19    391    588     1    46   125  0.435  0.508  0.533  0.441  0.434  0.423  0.413  0.402  0.000  0.000
 2001 306    74   176     19    393    588     1    46   125  0.436  0.499  0.526  0.437  0.432  0.420  0.410  0.399  0.000  0.000
 2001 307    75   172     19    393    588     1    46   125  0.435  0.491  0.518  0.434  0.430  0.419  0.409  0.397  0.000  0.000
 2001 308    76   168     19    393    588     1    46   125  0.432  0.483  0.511  0.431  0.428  0.417  0.408  0.396  0.000  0.000
 2001 309    77   165     19    393    588     1    46   125  0.428  0.476  0.505  0.428  0.426  0.416  0.407  0.396  0.000  0.000
 2001 310    78   201     19    393    627     1    46   125  0.543  0.564  0.564  0.468  0.455  0.421  0.410  0.395  0.000  0.000
 2001 311    79   204     19    394    632     1    46   125  0.546  0.567  0.567  0.467  0.457  0.425  0.413  0.397  0.000  0.000
 2001 312    80   193     19    401    632     1    46   125  0.495  0.554  0.554  0.454  0.445  0.422  0.410  0.397  0.000  0.000
 2001 313    81   213     19    402    657     1    46   125  0.529  0.556  0.565  0.468  0.459  0.446  0.427  0.404  0.000  0.000
 2001 314    82   219     19    404    668     1    46   125  0.549  0.560  0.566  0.469  0.460  0.447  0.439  0.417  0.000  0.000
 2001 315    83   199     19    417    668     1    46   125  0.464  0.548  0.552  0.454  0.446  0.434  0.425  0.407  0.000  0.000
 2001 316    84   186     19    424    668     1    46   125  0.456  0.520  0.538  0.445  0.438  0.426  0.417  0.402  0.000  0.000
 2001 317    85   181     19    426    668     1    46   125  0.458  0.511  0.532  0.441  0.434  0.423  0.413  0.399  0.000  0.000
 2001 318    86   175     19    428    668     1    46   125  0.443  0.501  0.524  0.438  0.431  0.420  0.410  0.397  0.000  0.000
 2001 319    87   170     19    428    668     1    46   125  0.433  0.490  0.515  0.433  0.428  0.417  0.408  0.396  0.000  0.000
 2001 320    88   166     19    428    668     1    46   125  0.426  0.481  0.507  0.429  0.426  0.415  0.407  0.395  0.000  0.000
 2001 321    89   161     19    428    668     1    46   125  0.420  0.471  0.498  0.425  0.423  0.413  0.405  0.394  0.000  0.000
 2001 322    90   156     19    428    668     1    46   125  0.412  0.461  0.489  0.421  0.419  0.411  0.403  0.393  0.000  0.000
 2001 323    91   152     19    428    668     1    46   125  0.406  0.453  0.482  0.417  0.417  0.409  0.402  0.392  0.000  0.000
 2001 324    92   146     19    428    668     1    46   125  0.398  0.443  0.473  0.412  0.413  0.406  0.400  0.391  0.000  0.000
 2001 325    93   143     19    428    668     1    46   125  0.392  0.439  0.468  0.409  0.411  0.404  0.399  0.391  0.000  0.000
 2001 326    94   139     19    428    668     1    46   125  0.385  0.432  0.460  0.405  0.408  0.402  0.397  0.390  0.000  0.000
 2001 327    95   134     19    428    668     1    46   125  0.379  0.426  0.450  0.400  0.404  0.400  0.395  0.388  0.000  0.000
 2001 328    96   212     21    428    719     2    77   125  0.568  0.568  0.566  0.468  0.459  0.445  0.417  0.395  0.000  0.000
 2001 329    97   199     21    438    719     2    77   125  0.525  0.555  0.554  0.455  0.447  0.434  0.413  0.395  0.000  0.000
 2001 330    98   222     22    464    771     2    77   125  0.563  0.559  0.566  0.469  0.460  0.447  0.439  0.431  0.000  0.000
 2001 331    99   201     22    478    771     2    77   125  0.487  0.546  0.551  0.454  0.446  0.434  0.425  0.416  0.000  0.000
 2001 332   100   187     22    485    771     2    77   125  0.465  0.522  0.538  0.445  0.437  0.426  0.417  0.407  0.000  0.000
 2001 333   101   194     22    486    784     2    77   125  0.527  0.560  0.545  0.444  0.436  0.423  0.416  0.405  0.000  0.000
 2001 334   102   192     22    487    785     2    77   125  0.540  0.545  0.545  0.442  0.436  0.422  0.414  0.404  0.000  0.000
 2001 335   103   184     22    489    785     2    77   125  0.475  0.538  0.538  0.438  0.431  0.420  0.411  0.400  0.000  0.000
 2001 336   104   177     22    489    785     2    77   125  0.468  0.516  0.528  0.435  0.429  0.418  0.409  0.397  0.000  0.000
 2001 337   105   175     22    489    785     2    77   125  0.467  0.507  0.524  0.433  0.428  0.417  0.408  0.397  0.000  0.000
 2001 338   106   174     22    489    786     2    77   125  0.481  0.501  0.520  0.431  0.427  0.416  0.408  0.396  0.000  0.000
 2001 339   107   170     22    489    786     2    77   125  0.454  0.498  0.515  0.429  0.426  0.415  0.407  0.396  0.000  0.000
 2001 340   108   166     22    489    786     2    77   125  0.439  0.489  0.508  0.426  0.423  0.414  0.406  0.395  0.000  0.000
 2001 341   109   161     22    489    786     2    77   125  0.427  0.478  0.500  0.422  0.420  0.411  0.404  0.394  0.000  0.000
 2001 342   110   156     22    489    786     2    77   125  0.419  0.468  0.492  0.418  0.418  0.409  0.403  0.394  0.000  0.000
 2001 343   111   151     22    489    786     2    77   125  0.411  0.459  0.484  0.414  0.414  0.407  0.401  0.393  0.000  0.000
 2001 344   112   147     22    489    786     2    77   125  0.403  0.450  0.475  0.410  0.411  0.405  0.399  0.392  0.000  0.000
 2001 345   113   143     22    489    786     2    77   125  0.396  0.442  0.469  0.407  0.409  0.403  0.398  0.391  0.000  0.000
 2001 346   114   139     22    489    786     2    77   125  0.389  0.436  0.462  0.403  0.406  0.401  0.396  0.390  0.000  0.000
 2001 347   115   135     22    489    786     2    77   125  0.382  0.431  0.456  0.400  0.403  0.400  0.395  0.389  0.000  0.000
 2001 348   116   160     22    489    786     3   106   125  0.520  0.564  0.494  0.397  0.401  0.398  0.394  0.388  0.000  0.000
 2001 349   117   153     22    489    786     3   106   125  0.472  0.531  0.499  0.396  0.399  0.397  0.393  0.387  0.000  0.000
 2001 350   118   148     22    489    786     3   106   125  0.463  0.505  0.493  0.394  0.397  0.396  0.391  0.386  0.000  0.000
 2001 351   119   141     22    489    786     3   106   125  0.424  0.487  0.483  0.392  0.394  0.394  0.390  0.385  0.000  0.000
 2001 352   120   135     22    489    786     3   106   125  0.409  0.469  0.473  0.389  0.392  0.392  0.388  0.384  0.000  0.000
 2001 353   121   131     22    489    786     3   106   125  0.397  0.457  0.466  0.388  0.390  0.391  0.387  0.383  0.000  0.000
 2001 354   122   128     22    489    786     3   106   125  0.388  0.447  0.459  0.386  0.389  0.390  0.386  0.382  0.000  0.000
 2001 355   123   160     22    489    820     3   106   125  0.556  0.562  0.542  0.386  0.389  0.390  0.386  0.381  0.000  0.000
 2001 356   124   153     22    489    820     3   106   125  0.478  0.547  0.531  0.395  0.387  0.389  0.385  0.380  0.000  0.000
 2001 357   125   147     22    489    820     3   106   125  0.456  0.516  0.521  0.395  0.386  0.387  0.384  0.379  0.000  0.000
 2001 358   126   140     22    489    820     3   106   125  0.421  0.497  0.508  0.393  0.385  0.386  0.383  0.378  0.000  0.000
 2001 359   127   134     22    489    820     3   106   125  0.411  0.478  0.494  0.391  0.383  0.385  0.382  0.377  0.000  0.000
 2001 360   128   128     22    489    820     3   106   125  0.401  0.461  0.479  0.388  0.382  0.383  0.380  0.376  0.000  0.000
 2001 361   129   122     22    489    820     3   106   125  0.390  0.446  0.466  0.385  0.380  0.382  0.379  0.375  0.000  0.000
 2001 362   130   117     22    489    820     3   106   125  0.380  0.432  0.453  0.383  0.379  0.381  0.378  0.374  0.000  0.000
 2001 363   131   141     22    489    820     4   136   125  0.504  0.561  0.489  0.381  0.378  0.380  0.377  0.373  0.000  0.000
 2001 364   132   151     22    489    836     4   136   125  0.509  0.543  0.557  0.393  0.377  0.379  0.376  0.372  0.000  0.000
 2001 365   133   146     22    489    836     4   136   125  0.480  0.527  0.540  0.400  0.377  0.379  0.376  0.372  0.000  0.000
 2002 001   134   139     22    489    836     4   136   125  0.450  0.510  0.523  0.398  0.377  0.378  0.375  0.371  0.000  0.000
 2002 002   135   133     22    489    836     4   136   125  0.426  0.493  0.509  0.396  0.376  0.377  0.375  0.370  0.000  0.000
 2002 003   136   128     22    489    836     4   136   125  0.415  0.476  0.495  0.393  0.375  0.376  0.374  0.369  0.000  0.000
 2002 004   137   123     22    489    836     4   136   125  0.405  0.463  0.483  0.390  0.375  0.375  0.373  0.369  0.000  0.000
 2002 005   138   137     22    489    852     4   136   125  0.555  0.536  0.478  0.389  0.375  0.375  0.373  0.368  0.000  0.000
 2002 006   139   143     22    489    862     4   136   125  0.511  0.557  0.520  0.388  0.375  0.375  0.373  0.368  0.000  0.000
 2002 007   140   136     22    489    862     4   136   125  0.457  0.526  0.518  0.389  0.374  0.374  0.372  0.367  0.000  0.000
 2002 008   141   130     22    489    862     4   136   125  0.431  0.500  0.504  0.388  0.374  0.374  0.371  0.367  0.000  0.000
 2002 009   142   124     22    489    862     4   136   125  0.410  0.481  0.492  0.386  0.373  0.373  0.371  0.366  0.000  0.000
 2002 010   143   119     22    489    862     4   136   125  0.398  0.464  0.479  0.385  0.372  0.372  0.370  0.365  0.000  0.000
 2002 011   144   115     22    489    862     4   136   125  0.387  0.450  0.466  0.383  0.372  0.372  0.369  0.365  0.000  0.000
 2002 012   145   109     22    489    862     4   136   125  0.377  0.434  0.452  0.380  0.371  0.371  0.369  0.364  0.000  0.000
 2002 013   146   145     22    489    875     5   166   125  0.492  0.560  0.556  0.397  0.370  0.370  0.368  0.364  0.000  0.000
 2002 014   147   145     22    489    878     5   166   125  0.549  0.533  0.547  0.406  0.370  0.370  0.368  0.363  0.000  0.000
 2002 015   148   139     22    489    878     5   166   125  0.461  0.533  0.535  0.407  0.371  0.370  0.368  0.363  0.000  0.000
 2002 016   149   132     22    489    878     5   166   125  0.426  0.510  0.522  0.405  0.371  0.369  0.367  0.362  0.000  0.000
 2002 017   150   128     22    489    878     5   166   125  0.422  0.492  0.510  0.402  0.371  0.369  0.367  0.362  0.000  0.000
 2002 018   151   123     22    489    878     5   166   125  0.415  0.477  0.497  0.398  0.371  0.368  0.366  0.362  0.000  0.000
 2002 019   152   118     22    489    878     5   166   125  0.407  0.462  0.484  0.394  0.371  0.368  0.366  0.361  0.000  0.000
 2002 020   153   116     22    489    881     5   166   125  0.427  0.450  0.472  0.390  0.370  0.367  0.365  0.361  0.000  0.000
 2002 021   154   112     22    489    881     5   166   125  0.410  0.443  0.464  0.388  0.370  0.367  0.365  0.360  0.000  0.000
 2002 022   155   108     22    489    881     5   166   125  0.397  0.433  0.453  0.385  0.370  0.366  0.364  0.360  0.000  0.000
 2002 023   156   105     22    489    881     5   166   125  0.385  0.427  0.444  0.383  0.369  0.366  0.364  0.359  0.000  0.000
 2002 024   157   176     22    489    924     6   198   125  0.519  0.565  0.565  0.469  0.460  0.385  0.364  0.359  0.000  0.000
 2002 025   158   169     22    489    924     6   198   125  0.443  0.542  0.552  0.455  0.447  0.405  0.364  0.359  0.000  0.000
 2002 026   159   166     22    489    924     6   198   125  0.447  0.520  0.542  0.447  0.439  0.413  0.364  0.359  0.000  0.000
 2002 027   160   167     22    489    928     6   198   125  0.508  0.511  0.536  0.443  0.438  0.414  0.365  0.359  0.000  0.000
 2002 028   161   164     22    489    928     6   198   125  0.469  0.514  0.531  0.439  0.434  0.416  0.365  0.359  0.000  0.000
 2002 029   162   162     22    489    928     6   198   125  0.462  0.507  0.526  0.437  0.432  0.416  0.366  0.358  0.000  0.000
 2002 030   163   217     74    503   1055     6   198   125  0.453  0.570  0.565  0.468  0.460  0.447  0.440  0.432  0.000  0.000
 2002 031   164   200     74    517   1055     6   198   125  0.444  0.532  0.555  0.456  0.448  0.435  0.427  0.417  0.000  0.000
 2002 032   165   190     74    524   1055     6   198   125  0.458  0.517  0.544  0.448  0.441  0.429  0.419  0.408  0.000  0.000

*DSSAT Cropping System Model Ver. 4.0.2.000               Aug 23, 2016; 18:13:15

*RUN   4        : UYSB                    
 MODEL          : CRGRO040 - Soybean         
 EXPERIMENT     : UYSB0297 SB    late to create DSS                             
 TREATMENT  1   : UYSB                    

@YEAR DOY   DAS  SWXD   ROFC   DRNC   PREC  IR#C  IRRC  DTWT   SW1D   SW2D   SW3D   SW4D   SW5D   SW6D   SW7D   SW8D   SW9D   SW10
 2002 232     0   117      0      0      0     0     0   125  0.374  0.394  0.394  0.335  0.375  0.419  0.408  0.395  0.000  0.000
 2002 233     1   115      0      0      0     0     0   125  0.327  0.393  0.394  0.335  0.376  0.418  0.408  0.395  0.000  0.000
 2002 234     2   112      0      0      0     0     0   125  0.285  0.392  0.394  0.336  0.376  0.418  0.408  0.395  0.000  0.000
 2002 235     3   154      0      0      0     1    44   125  0.527  0.566  0.476  0.336  0.377  0.417  0.408  0.395  0.000  0.000
 2002 236     4   150      0      0      0     1    44   125  0.463  0.540  0.487  0.338  0.377  0.417  0.408  0.395  0.000  0.000
 2002 237     5   147      0      0      0     1    44   125  0.441  0.513  0.488  0.341  0.378  0.416  0.408  0.395  0.000  0.000
 2002 238     6   145      0      0      0     1    44   125  0.440  0.498  0.487  0.343  0.378  0.416  0.408  0.395  0.000  0.000
 2002 239     7   144      0      0      0     1    44   125  0.436  0.488  0.486  0.345  0.378  0.415  0.408  0.395  0.000  0.000
 2002 240     8   171      0      0     31     1    44   125  0.506  0.561  0.566  0.375  0.379  0.415  0.408  0.395  0.000  0.000
 2002 241     9   171      0      0     33     1    44   125  0.534  0.540  0.555  0.391  0.379  0.415  0.408  0.395  0.000  0.000
 2002 242    10   168      0      0     33     1    44   125  0.478  0.538  0.546  0.399  0.380  0.414  0.408  0.395  0.000  0.000
 2002 243    11   166      0      0     33     1    44   125  0.462  0.525  0.537  0.403  0.382  0.414  0.407  0.395  0.000  0.000
 2002 244    12   164      0      0     33     1    44   125  0.465  0.515  0.531  0.405  0.383  0.414  0.407  0.395  0.000  0.000
 2002 245    13   163      0      0     33     1    44   125  0.465  0.509  0.525  0.406  0.384  0.413  0.407  0.395  0.000  0.000
 2002 246    14   162      0      0     33     1    44   125  0.465  0.504  0.521  0.407  0.385  0.413  0.407  0.395  0.000  0.000
 2002 247    15   161      0      0     33     1    44   125  0.464  0.501  0.517  0.408  0.386  0.413  0.407  0.395  0.000  0.000
 2002 248    16   162      0      0     35     1    44   125  0.486  0.497  0.514  0.408  0.388  0.413  0.407  0.395  0.000  0.000
 2002 249    17   168      0      0     42     1    44   125  0.549  0.527  0.511  0.408  0.389  0.412  0.407  0.395  0.000  0.000
 2002 250    18   165      0      0     42     1    44   125  0.490  0.530  0.513  0.408  0.390  0.412  0.407  0.395  0.000  0.000
 2002 251    19   164      0      0     42     1    44   125  0.488  0.517  0.513  0.409  0.391  0.412  0.407  0.395  0.000  0.000
 2002 252    20   163      0      0     42     1    44   125  0.482  0.510  0.512  0.409  0.392  0.412  0.407  0.395  0.000  0.000
 2002 253    21   182      0      0     62     1    44   125  0.556  0.563  0.562  0.423  0.392  0.411  0.407  0.395  0.000  0.000
 2002 254    22   223      7     28    140     1    44   125  0.558  0.568  0.566  0.470  0.462  0.447  0.439  0.432  0.000  0.000
 2002 255    23   204      7     43    140     1    44   125  0.472  0.557  0.557  0.457  0.449  0.436  0.427  0.417  0.000  0.000
 2002 256    24   193      7     52    140     1    44   125  0.460  0.531  0.549  0.450  0.442  0.429  0.419  0.408  0.000  0.000
 2002 257    25   186      7     56    140     1    44   125  0.458  0.519  0.542  0.445  0.438  0.425  0.415  0.403  0.000  0.000
 2002 258    26   182      7     59    140     1    44   125  0.460  0.513  0.536  0.442  0.435  0.423  0.412  0.400  0.000  0.000
 2002 259    27   182      7     59    142     1    44   125  0.491  0.509  0.532  0.439  0.434  0.422  0.412  0.400  0.000  0.000
 2002 260    28   180      7     60    142     1    44   125  0.478  0.510  0.529  0.439  0.433  0.422  0.411  0.398  0.000  0.000
 2002 261    29   199      7     61    163     1    44   125  0.552  0.566  0.565  0.457  0.440  0.423  0.412  0.398  0.000  0.000
 2002 262    30   200      7     61    166     1    44   125  0.530  0.568  0.564  0.458  0.445  0.424  0.414  0.399  0.000  0.000
 2002 263    31   190      7     67    166     1    44   125  0.459  0.552  0.555  0.450  0.439  0.422  0.411  0.398  0.000  0.000
 2002 264    32   185      7     69    166     1    44   125  0.457  0.527  0.547  0.445  0.436  0.422  0.410  0.398  0.000  0.000
 2002 265    33   182      7     70    166     1    44   125  0.456  0.517  0.540  0.442  0.434  0.422  0.410  0.398  0.000  0.000
 2002 266    34   180      7     71    166     1    44   125  0.458  0.511  0.535  0.440  0.434  0.422  0.410  0.398  0.000  0.000
 2002 267    35   179      7     71    166     1    44   125  0.460  0.507  0.531  0.439  0.434  0.422  0.410  0.398  0.000  0.000
 2002 268    36   178      7     71    166     1    44   125  0.461  0.504  0.528  0.438  0.434  0.422  0.410  0.398  0.000  0.000
 2002 269    37   178      7     71    166     1    44   125  0.462  0.501  0.525  0.437  0.434  0.422  0.410  0.398  0.000  0.000
 2002 270    38   177      7     71    166     1    44   125  0.463  0.499  0.522  0.436  0.434  0.422  0.410  0.398  0.000  0.000
 2002 271    39   176      7     71    166     1    44   125  0.463  0.497  0.520  0.435  0.433  0.422  0.410  0.398  0.000  0.000
 2002 272    40   216      7     72    209     1    44   125  0.550  0.566  0.566  0.469  0.460  0.447  0.431  0.406  0.000  0.000
 2002 273    41   201      7     84    209     1    44   125  0.477  0.556  0.556  0.456  0.448  0.436  0.422  0.402  0.000  0.000
 2002 274    42   191      7     91    209     1    44   125  0.464  0.531  0.549  0.449  0.441  0.429  0.416  0.399  0.000  0.000
 2002 275    43   211      7     92    234     1    44   125  0.513  0.564  0.564  0.470  0.460  0.439  0.426  0.405  0.000  0.000
 2002 276    44   196      7    102    234     1    44   125  0.453  0.543  0.555  0.457  0.449  0.431  0.419  0.401  0.000  0.000
 2002 277    45   188      7    108    234     1    44   125  0.461  0.523  0.546  0.449  0.441  0.426  0.415  0.399  0.000  0.000
 2002 278    46   184      7    111    234     1    44   125  0.465  0.516  0.539  0.445  0.437  0.423  0.412  0.397  0.000  0.000
 2002 279    47   221    105    146    408     1    44   125  0.513  0.573  0.565  0.469  0.460  0.447  0.439  0.432  0.000  0.000
 2002 280    48   222    105    153    417     1    44   125  0.550  0.559  0.568  0.470  0.460  0.447  0.439  0.432  0.000  0.000
 2002 281    49   222    105    160    426     1    44   125  0.535  0.568  0.568  0.470  0.460  0.447  0.439  0.432  0.000  0.000
 2002 282    50   222    105    178    446     1    44   125  0.541  0.564  0.568  0.470  0.460  0.447  0.439  0.432  0.000  0.000
 2002 283    51   220    105    183    451     1    44   125  0.535  0.567  0.568  0.470  0.460  0.442  0.439  0.432  0.000  0.000
 2002 284    52   204    105    196    451     1    44   125  0.498  0.554  0.557  0.457  0.449  0.433  0.427  0.417  0.000  0.000
 2002 285    53   192    105    205    451     1    44   125  0.450  0.533  0.550  0.449  0.441  0.427  0.419  0.408  0.000  0.000
 2002 286    54   185    105    209    451     1    44   125  0.450  0.518  0.541  0.444  0.437  0.424  0.414  0.403  0.000  0.000
 2002 287    55   181    105    211    451     1    44   125  0.452  0.511  0.535  0.441  0.434  0.422  0.412  0.400  0.000  0.000
 2002 288    56   203    105    212    476     1    44   125  0.541  0.566  0.564  0.469  0.451  0.424  0.414  0.400  0.000  0.000
 2002 289    57   194    105    219    476     1    44   125  0.498  0.556  0.555  0.456  0.443  0.422  0.411  0.398  0.000  0.000
 2002 290    58   186    105    223    476     1    44   125  0.453  0.533  0.548  0.449  0.438  0.421  0.410  0.397  0.000  0.000
 2002 291    59   182    105    224    476     1    44   125  0.455  0.518  0.540  0.444  0.434  0.420  0.410  0.397  0.000  0.000
 2002 292    60   222    132    257    579     1    44   125  0.548  0.573  0.564  0.469  0.460  0.447  0.439  0.432  0.000  0.000
 2002 293    61   206    132    272    579     1    44   125  0.509  0.560  0.555  0.457  0.448  0.436  0.427  0.417  0.000  0.000
 2002 294    62   194    132    280    579     1    44   125  0.474  0.538  0.549  0.449  0.441  0.429  0.419  0.408  0.000  0.000
 2002 295    63   186    132    285    579     1    44   125  0.455  0.523  0.541  0.444  0.436  0.424  0.414  0.403  0.000  0.000
 2002 296    64   181    132    287    579     1    44   125  0.456  0.513  0.534  0.440  0.434  0.422  0.411  0.399  0.000  0.000
 2002 297    65   178    132    287    579     1    44   125  0.456  0.506  0.529  0.439  0.433  0.421  0.410  0.397  0.000  0.000
 2002 298    66   177    132    287    579     1    44   125  0.455  0.501  0.525  0.437  0.433  0.421  0.409  0.397  0.000  0.000
 2002 299    67   218    132    310    649     1    44   125  0.483  0.563  0.564  0.468  0.460  0.447  0.439  0.431  0.000  0.000
 2002 300    68   202    132    324    649     1    44   125  0.495  0.533  0.554  0.456  0.448  0.435  0.426  0.417  0.000  0.000
 2002 301    69   219    132    331    678     1    44   125  0.513  0.562  0.563  0.469  0.460  0.447  0.439  0.431  0.000  0.000
 2002 302    70   203    132    345    678     1    44   125  0.496  0.541  0.554  0.456  0.448  0.435  0.426  0.417  0.000  0.000
 2002 303    71   194    132    353    678     1    44   125  0.507  0.528  0.545  0.448  0.441  0.428  0.419  0.408  0.000  0.000
 2002 304    72   185    132    357    678     1    44   125  0.458  0.523  0.538  0.443  0.435  0.424  0.414  0.402  0.000  0.000
 2002 305    73   179    132    359    678     1    44   125  0.456  0.510  0.530  0.439  0.432  0.421  0.411  0.399  0.000  0.000
 2002 306    74   176    132    359    678     1    44   125  0.452  0.502  0.524  0.436  0.431  0.420  0.410  0.397  0.000  0.000
 2002 307    75   222    132    378    746     1    44   125  0.561  0.563  0.565  0.468  0.460  0.447  0.439  0.431  0.000  0.000
 2002 308    76   205    132    392    746     1    44   125  0.510  0.553  0.554  0.455  0.448  0.435  0.426  0.417  0.000  0.000
 2002 309    77   191    132    400    746     1    44   125  0.466  0.532  0.545  0.447  0.439  0.427  0.418  0.408  0.000  0.000
 2002 310    78   182    132    404    746     1    44   125  0.438  0.516  0.536  0.441  0.434  0.423  0.413  0.402  0.000  0.000
 2002 311    79   176    132    406    746     1    44   125  0.437  0.503  0.527  0.437  0.431  0.420  0.410  0.399  0.000  0.000
 2002 312    80   172    132    406    746     1    44   125  0.434  0.493  0.519  0.434  0.429  0.418  0.409  0.397  0.000  0.000
 2002 313    81   185    132    406    761     1    44   125  0.558  0.561  0.525  0.432  0.428  0.418  0.408  0.396  0.000  0.000
 2002 314    82   181    132    406    761     1    44   125  0.502  0.546  0.533  0.430  0.427  0.417  0.408  0.396  0.000  0.000
 2002 315    83   179    132    406    761     1    44   125  0.510  0.528  0.532  0.430  0.426  0.416  0.407  0.396  0.000  0.000
 2002 316    84   173    132    406    761     1    44   125  0.461  0.518  0.525  0.428  0.424  0.414  0.406  0.395  0.000  0.000
 2002 317    85   167    132    406    761     1    44   125  0.435  0.502  0.516  0.425  0.421  0.412  0.404  0.394  0.000  0.000
[...]
 2003 255    23   182      0     38    107     1    34   125  0.455  0.513  0.537  0.442  0.435  0.423  0.412  0.400  0.000  0.000
 2003 256    24   179      0     40    107     1    34   125  0.458  0.508  0.532  0.439  0.433  0.421  0.410  0.398  0.000  0.000
 2003 257    25   179      0     40    107     1    34   125  0.460  0.505  0.529  0.438  0.433  0.421  0.410  0.398  0.000  0.000
 2003 258    26   178      0     40    107     1    34   125  0.461  0.502  0.526  0.437  0.433  0.421  0.410  0.398  0.000  0.000
 2003 259    27   177      0     40    107     1    34   125  0.462  0.500  0.523  0.436  0.433  0.421  0.410  0.398  0.000  0.000
 2003 260    28   176      0     40    107     1    34   125  0.462  0.498  0.521  0.435  0.433  0.421  0.410  0.398  0.000  0.000
 2003 261    29   176      0     40    107     1    34   125  0.463  0.496  0.519  0.434  0.433  0.421  0.410  0.398  0.000  0.000
 2003 262    30   177      0     40    110     1    34   125  0.500  0.495  0.517  0.433  0.433  0.421  0.410  0.398  0.000  0.000
 2003 263    31   176      0     40    110     1    34   125  0.484  0.499  0.516  0.432  0.432  0.421  0.410  0.398  0.000  0.000
 2003 264    32   189      0     40    126     1    34   125  0.512  0.568  0.545  0.434  0.432  0.421  0.410  0.398  0.000  0.000
 2003 265    33   186      0     40    126     1    34   125  0.480  0.545  0.543  0.439  0.432  0.421  0.410  0.398  0.000  0.000
 2003 266    34   186      0     40    129     1    34   125  0.541  0.529  0.540  0.438  0.432  0.421  0.410  0.398  0.000  0.000
 2003 267    35   184      0     40    129     1    34   125  0.481  0.536  0.539  0.438  0.432  0.421  0.410  0.398  0.000  0.000
 2003 268    36   182      0     40    129     1    34   125  0.469  0.523  0.536  0.438  0.432  0.421  0.410  0.398  0.000  0.000
 2003 269    37   180      0     40    129     1    34   125  0.469  0.515  0.533  0.437  0.432  0.421  0.410  0.398  0.000  0.000
 2003 270    38   184      0     40    135     1    34   125  0.535  0.523  0.530  0.436  0.432  0.421  0.410  0.398  0.000  0.000
 2003 271    39   181      0     40    135     1    34   125  0.482  0.528  0.530  0.436  0.431  0.421  0.410  0.398  0.000  0.000
 2003 272    40   180      0     40    135     1    34   125  0.482  0.518  0.529  0.435  0.431  0.421  0.410  0.398  0.000  0.000
 2003 273    41   179      0     40    135     1    34   125  0.479  0.512  0.527  0.434  0.431  0.421  0.410  0.398  0.000  0.000
 2003 274    42   178      0     40    135     1    34   125  0.476  0.508  0.524  0.434  0.431  0.421  0.410  0.398  0.000  0.000
 2003 275    43   177      0     40    135     1    34   125  0.475  0.505  0.522  0.433  0.431  0.421  0.410  0.398  0.000  0.000
 2003 276    44   180      0     40    140     1    34   125  0.537  0.507  0.521  0.432  0.430  0.421  0.410  0.398  0.000  0.000
 2003 277    45   200      0     41    162     1    34   125  0.517  0.578  0.568  0.465  0.442  0.422  0.412  0.398  0.000  0.000
 2003 278    46   192      0     47    162     1    34   125  0.485  0.553  0.558  0.454  0.437  0.421  0.410  0.397  0.000  0.000
 2003 279    47   185      0     49    162     1    34   125  0.456  0.531  0.549  0.448  0.435  0.421  0.410  0.397  0.000  0.000
 2003 280    48   182      0     51    162     1    34   125  0.451  0.518  0.541  0.444  0.433  0.421  0.410  0.397  0.000  0.000
 2003 281    49   206      0     51    190     1    34   125  0.537  0.566  0.563  0.469  0.460  0.430  0.416  0.400  0.000  0.000
 2003 282    50   193      0     59    190     1    34   125  0.450  0.554  0.554  0.457  0.449  0.425  0.413  0.398  0.000  0.000
 2003 283    51   186      0     64    190     1    34   125  0.449  0.527  0.547  0.449  0.441  0.423  0.411  0.398  0.000  0.000
 2003 284    52   183      0     66    190     1    34   125  0.457  0.516  0.539  0.445  0.437  0.421  0.411  0.398  0.000  0.000
 2003 285    53   181      0     67    190     1    34   125  0.461  0.511  0.534  0.441  0.435  0.421  0.411  0.398  0.000  0.000
 2003 286    54   179      0     67    190     1    34   125  0.463  0.507  0.530  0.439  0.433  0.421  0.411  0.398  0.000  0.000
 2003 287    55   178      0     67    190     1    34   125  0.464  0.503  0.527  0.438  0.433  0.421  0.411  0.398  0.000  0.000
 2003 288    56   177      0     67    190     1    34   125  0.464  0.501  0.524  0.436  0.433  0.421  0.411  0.398  0.000  0.000
 2003 289    57   176      0     67    190     1    34   125  0.464  0.498  0.521  0.435  0.432  0.421  0.411  0.398  0.000  0.000
 2003 290    58   175      0     67    190     1    34   125  0.463  0.496  0.518  0.434  0.432  0.420  0.410  0.398  0.000  0.000
 2003 291    59   176      0     67    194     1    34   125  0.489  0.494  0.516  0.433  0.431  0.420  0.410  0.398  0.000  0.000
 2003 292    60   175      0     67    194     1    34   125  0.478  0.496  0.514  0.431  0.431  0.420  0.410  0.397  0.000  0.000
 2003 293    61   174      0     67    194     1    34   125  0.473  0.496  0.513  0.430  0.431  0.420  0.410  0.397  0.000  0.000
 2003 294    62   173      0     67    194     1    34   125  0.469  0.494  0.511  0.429  0.430  0.420  0.410  0.397  0.000  0.000
 2003 295    63   172      0     67    194     1    34   125  0.466  0.491  0.509  0.428  0.429  0.420  0.410  0.397  0.000  0.000
 2003 296    64   171      0     67    194     1    34   125  0.463  0.489  0.507  0.427  0.429  0.419  0.410  0.397  0.000  0.000
 2003 297    65   170      0     67    194     1    34   125  0.461  0.487  0.505  0.426  0.428  0.419  0.409  0.397  0.000  0.000
 2003 298    66   192      0     67    219     1    34   125  0.523  0.566  0.567  0.441  0.430  0.419  0.409  0.397  0.000  0.000
 2003 299    67   185      0     69    219     1    34   125  0.455  0.547  0.556  0.439  0.431  0.419  0.409  0.397  0.000  0.000
 2003 300    68   181      0     70    219     1    34   125  0.449  0.523  0.545  0.439  0.430  0.419  0.409  0.397  0.000  0.000
 2003 301    69   178      0     70    219     1    34   125  0.453  0.513  0.537  0.438  0.430  0.418  0.408  0.397  0.000  0.000
 2003 302    70   176      0     70    219     1    34   125  0.453  0.506  0.530  0.436  0.430  0.418  0.408  0.396  0.000  0.000
 2003 303    71   174      0     70    219     1    34   125  0.452  0.500  0.525  0.434  0.429  0.417  0.407  0.396  0.000  0.000
 2003 304    72   184      0     70    232     1    34   125  0.546  0.554  0.528  0.433  0.428  0.417  0.407  0.396  0.000  0.000
 2003 305    73   178      0     70    232     1    34   125  0.455  0.543  0.532  0.432  0.427  0.416  0.407  0.396  0.000  0.000
 2003 306    74   174      0     70    232     1    34   125  0.446  0.519  0.528  0.431  0.426  0.415  0.406  0.395  0.000  0.000
 2003 307    75   171      0     70    232     1    34   125  0.446  0.505  0.523  0.429  0.425  0.415  0.406  0.395  0.000  0.000
 2003 308    76   169      0     70    232     1    34   125  0.443  0.497  0.517  0.428  0.424  0.414  0.405  0.395  0.000  0.000
 2003 309    77   166      0     70    232     1    34   125  0.440  0.489  0.512  0.426  0.423  0.413  0.404  0.394  0.000  0.000
 2003 310    78   163      0     70    232     1    34   125  0.435  0.483  0.506  0.424  0.421  0.412  0.404  0.394  0.000  0.000
 2003 311    79   160      0     70    232     1    34   125  0.431  0.477  0.501  0.421  0.420  0.411  0.403  0.393  0.000  0.000
 2003 312    80   158      0     70    232     1    34   125  0.426  0.471  0.496  0.419  0.418  0.410  0.402  0.393  0.000  0.000
 2003 313    81   155      0     70    232     1    34   125  0.422  0.466  0.492  0.417  0.417  0.409  0.401  0.392  0.000  0.000
 2003 314    82   151      0     70    232     1    34   125  0.417  0.459  0.485  0.414  0.414  0.407  0.400  0.392  0.000  0.000
 2003 315    83   198      0     70    285     1    34   125  0.501  0.562  0.562  0.467  0.458  0.424  0.406  0.391  0.000  0.000
 2003 316    84   200      0     70    289     1    34   125  0.553  0.547  0.557  0.461  0.456  0.427  0.412  0.394  0.000  0.000
 2003 317    85   189      0     76    289     1    34   125  0.486  0.541  0.547  0.450  0.445  0.422  0.410  0.395  0.000  0.000
 2003 318    86   181      0     78    289     1    34   125  0.466  0.521  0.536  0.443  0.437  0.419  0.408  0.394  0.000  0.000
 2003 319    87   192      0     78    306     1    34   125  0.509  0.560  0.560  0.448  0.438  0.419  0.409  0.394  0.000  0.000
 2003 320    88   194      0     78    310     1    34   125  0.563  0.550  0.556  0.450  0.440  0.421  0.410  0.395  0.000  0.000
 2003 321    89   220      2    101    365     1    34   125  0.528  0.565  0.565  0.469  0.459  0.446  0.439  0.431  0.000  0.000
 2003 322    90   221      2    115    382     1    34   125  0.555  0.560  0.566  0.469  0.460  0.447  0.439  0.431  0.000  0.000
 2003 323    91   201      2    129    382     1    34   125  0.486  0.547  0.551  0.454  0.446  0.434  0.425  0.416  0.000  0.000
 2003 324    92   188      2    136    382     1    34   125  0.469  0.523  0.539  0.445  0.438  0.426  0.417  0.407  0.000  0.000
 2003 325    93   178      2    139    382     1    34   125  0.432  0.510  0.529  0.439  0.433  0.421  0.412  0.401  0.000  0.000
 2003 326    94   171      2    140    382     1    34   125  0.426  0.493  0.517  0.434  0.429  0.418  0.408  0.398  0.000  0.000
 2003 327    95   178      2    140    396     1    34   125  0.520  0.543  0.513  0.430  0.426  0.416  0.407  0.397  0.000  0.000
 2003 328    96   177      2    140    396     1    34   125  0.522  0.528  0.515  0.428  0.425  0.416  0.406  0.397  0.000  0.000
 2003 329    97   170      2    140    396     1    34   125  0.470  0.517  0.510  0.425  0.423  0.414  0.405  0.396  0.000  0.000
 2003 330    98   190      2    140    420     1    34   125  0.547  0.555  0.564  0.448  0.429  0.412  0.404  0.395  0.000  0.000
 2003 331    99   183      2    140    420     1    34   125  0.480  0.543  0.548  0.441  0.428  0.417  0.404  0.394  0.000  0.000
 2003 332   100   179      2    140    420     1    34   125  0.490  0.523  0.538  0.438  0.430  0.416  0.403  0.394  0.000  0.000
 2003 333   101   172      2    140    420     1    34   125  0.467  0.510  0.526  0.433  0.426  0.413  0.401  0.393  0.000  0.000
 2003 334   102   177      2    140    427     1    34   125  0.563  0.527  0.521  0.432  0.425  0.412  0.401  0.392  0.000  0.000
 2003 335   103   171      2    140    427     1    34   125  0.486  0.528  0.516  0.428  0.422  0.410  0.399  0.391  0.000  0.000
 2003 336   104   166      2    140    427     1    34   125  0.468  0.510  0.512  0.425  0.420  0.408  0.398  0.391  0.000  0.000
 2003 337   105   160      2    140    427     1    34   125  0.450  0.496  0.504  0.421  0.417  0.406  0.397  0.390  0.000  0.000
 2003 338   106   169      2    140    440     1    34   125  0.553  0.546  0.506  0.419  0.416  0.405  0.396  0.389  0.000  0.000
 2003 339   107   163      2    140    440     1    34   125  0.491  0.530  0.506  0.416  0.413  0.403  0.394  0.388  0.000  0.000
 2003 340   108   156      2    140    440     1    34   125  0.461  0.508  0.500  0.413  0.410  0.401  0.393  0.387  0.000  0.000
 2003 341   109   152      2    140    440     1    34   125  0.442  0.494  0.495  0.410  0.408  0.400  0.392  0.386  0.000  0.000
 2003 342   110   155      2    140    446     1    34   125  0.551  0.490  0.492  0.409  0.406  0.399  0.392  0.386  0.000  0.000
 2003 343   111   149      2    140    446     1    34   125  0.464  0.497  0.486  0.405  0.404  0.397  0.390  0.385  0.000  0.000
 2003 344   112   150      2    140    453     1    34   125  0.523  0.501  0.479  0.402  0.401  0.396  0.389  0.384  0.000  0.000
 2003 345   113   145      2    140    453     1    34   125  0.474  0.498  0.476  0.399  0.399  0.395  0.388  0.383  0.000  0.000
 2003 346   114   140      2    140    453     1    34   125  0.434  0.484  0.470  0.396  0.397  0.394  0.387  0.382  0.000  0.000
 2003 347   115   135      2    140    453     1    34   125  0.410  0.471  0.465  0.394  0.395  0.392  0.387  0.381  0.000  0.000
 2003 348   116   129      2    140    453     1    34   125  0.378  0.456  0.457  0.391  0.393  0.391  0.385  0.380  0.000  0.000
 2003 349   117   150      2    140    477     1    34   125  0.562  0.560  0.473  0.390  0.392  0.390  0.385  0.380  0.000  0.000
 2003 350   118   144      2    140    477     1    34   125  0.500  0.535  0.479  0.388  0.390  0.389  0.384  0.379  0.000  0.000
 2003 351   119   138      2    140    477     1    34   125  0.465  0.508  0.473  0.386  0.388  0.388  0.383  0.378  0.000  0.000
 2003 352   120   131      2    140    477     1    34   125  0.436  0.484  0.463  0.384  0.386  0.386  0.382  0.376  0.000  0.000
 2003 353   121   126      2    140    477     1    34   125  0.407  0.469  0.457  0.383  0.385  0.385  0.381  0.376  0.000  0.000
 2003 354   122   124      2    140    477     1    34   125  0.399  0.459  0.453  0.382  0.384  0.385  0.380  0.375  0.000  0.000
 2003 355   123   185      2    140    545     1    34   125  0.525  0.552  0.557  0.468  0.459  0.406  0.379  0.374  0.000  0.000
 2003 356   124   182      2    140    545     1    34   125  0.510  0.537  0.547  0.454  0.446  0.418  0.385  0.374  0.000  0.000
 2003 357   125   175      2    140    545     1    34   125  0.477  0.523  0.535  0.445  0.437  0.417  0.394  0.373  0.000  0.000
 2003 358   126   170      2    140    545     1    34   125  0.457  0.511  0.527  0.439  0.433  0.417  0.393  0.373  0.000  0.000
 2003 359   127   163      2    140    545     1    34   125  0.431  0.495  0.515  0.434  0.429  0.414  0.392  0.372  0.000  0.000
 2003 360   128   157      2    140    545     1    34   125  0.419  0.481  0.505  0.429  0.425  0.411  0.390  0.372  0.000  0.000
 2003 361   129   176      2    140    566     1    34   125  0.565  0.562  0.534  0.426  0.424  0.410  0.390  0.372  0.000  0.000
 2003 362   130   172      2    140    566     1    34   125  0.520  0.548  0.539  0.426  0.422  0.409  0.389  0.372  0.000  0.000
 2003 363   131   166      2    140    566     1    34   125  0.482  0.529  0.532  0.424  0.419  0.407  0.388  0.371  0.000  0.000
 2003 364   132   159      2    140    566     1    34   125  0.464  0.511  0.522  0.421  0.416  0.404  0.387  0.371  0.000  0.000
 2003 365   133   153      2    140    566     1    34   125  0.427  0.498  0.513  0.418  0.414  0.402  0.386  0.371  0.000  0.000
 2004 001   134   147      2    140    566     1    34   125  0.414  0.482  0.501  0.414  0.410  0.400  0.385  0.370  0.000  0.000
 2004 002   135   141      2    140    566     1    34   125  0.404  0.467  0.489  0.409  0.406  0.397  0.383  0.369  0.000  0.000
 2004 003   136   134      2    140    566     1    34   125  0.395  0.452  0.476  0.404  0.401  0.395  0.382  0.369  0.000  0.000
 2004 004   137   129      2    140    566     1    34   125  0.385  0.441  0.466  0.400  0.398  0.393  0.381  0.368  0.000  0.000
 2004 005   138   124      2    140    566     1    34   125  0.376  0.430  0.455  0.395  0.395  0.391  0.380  0.368  0.000  0.000
 2004 006   139   147      2    140    566     2    64   125  0.513  0.561  0.488  0.391  0.392  0.389  0.379  0.367  0.000  0.000
 2004 007   140   149      2    140    573     2    64   125  0.536  0.544  0.510  0.390  0.391  0.388  0.378  0.367  0.000  0.000
 2004 008   141   142      2    140    573     2    64   125  0.470  0.525  0.503  0.389  0.389  0.387  0.377  0.366  0.000  0.000
 2004 009   142   135      2    140    573     2    64   125  0.448  0.499  0.492  0.388  0.387  0.386  0.376  0.366  0.000  0.000
 2004 010   143   129      2    140    573     2    64   125  0.408  0.483  0.483  0.387  0.385  0.385  0.376  0.365  0.000  0.000
 2004 011   144   123      2    140    573     2    64   125  0.395  0.463  0.470  0.384  0.383  0.383  0.374  0.364  0.000  0.000
 2004 012   145   119      2    140    573     2    64   125  0.383  0.449  0.460  0.383  0.382  0.382  0.374  0.364  0.000  0.000
 2004 013   146   114      2    140    573     2    64   125  0.372  0.435  0.448  0.380  0.381  0.381  0.373  0.363  0.000  0.000
 2004 014   147   137      2    140    573     3    95   125  0.510  0.558  0.486  0.378  0.379  0.380  0.372  0.363  0.000  0.000
 2004 015   148   132      2    140    573     3    95   125  0.482  0.522  0.488  0.378  0.378  0.379  0.372  0.363  0.000  0.000
 2004 016   149   126      2    140    573     3    95   125  0.453  0.496  0.477  0.378  0.377  0.378  0.371  0.362  0.000  0.000
 2004 017   150   123      2    140    573     3    95   125  0.434  0.483  0.473  0.378  0.377  0.378  0.370  0.362  0.000  0.000
 2004 018   151   120      2    140    573     3    95   125  0.416  0.472  0.468  0.377  0.376  0.377  0.370  0.362  0.000  0.000
 2004 019   152   119      2    140    576     3    95   125  0.456  0.462  0.463  0.377  0.376  0.377  0.370  0.361  0.000  0.000
 2004 020   153   115      2    140    576     3    95   125  0.418  0.455  0.456  0.376  0.375  0.376  0.369  0.361  0.000  0.000
 2004 021   154   110      2    140    576     3    95   125  0.396  0.439  0.443  0.375  0.374  0.375  0.369  0.360  0.000  0.000
 2004 022   155   133      2    140    576     4   125   125  0.511  0.557  0.489  0.373  0.373  0.374  0.368  0.360  0.000  0.000
 2004 023   156   127      2    140    576     4   125   125  0.472  0.521  0.489  0.374  0.372  0.374  0.368  0.360  0.000  0.000
 2004 024   157   121      2    140    576     4   125   125  0.446  0.494  0.478  0.373  0.371  0.373  0.367  0.359  0.000  0.000
 2004 025   158   115      2    140    576     4   125   125  0.407  0.473  0.466  0.373  0.370  0.372  0.366  0.359  0.000  0.000
 2004 026   159   109      2    140    576     4   125   125  0.391  0.452  0.451  0.371  0.369  0.371  0.366  0.358  0.000  0.000
 2004 027   160   103      2    140    576     4   125   125  0.377  0.434  0.436  0.370  0.368  0.370  0.365  0.358  0.000  0.000
 2004 028   161   131      2    140    576     5   157   125  0.534  0.560  0.490  0.369  0.368  0.370  0.364  0.357  0.000  0.000
 2004 029   162   124      2    140    576     5   157   125  0.455  0.530  0.489  0.370  0.367  0.369  0.364  0.357  0.000  0.000
 2004 030   163   116      2    140    576     5   157   125  0.428  0.493  0.475  0.369  0.366  0.368  0.363  0.356  0.000  0.000
 2004 031   164   164      2    140    629     5   157   125  0.531  0.552  0.562  0.470  0.430  0.368  0.363  0.356  0.000  0.000
 2004 032   165   158      2    140    629     5   157   125  0.460  0.537  0.548  0.455  0.428  0.379  0.363  0.356  0.000  0.000
 2004 033   166   157      2    140    634     5   157   125  0.500  0.526  0.538  0.447  0.432  0.380  0.363  0.356  0.000  0.000
 2004 034   167   167      2    140    647     5   157   125  0.553  0.563  0.555  0.449  0.435  0.382  0.363  0.356  0.000  0.000
 2004 035   168   162      2    140    647     5   157   125  0.455  0.552  0.547  0.444  0.432  0.392  0.363  0.355  0.000  0.000
 2004 036   169   157      2    140    647     5   157   125  0.434  0.523  0.539  0.440  0.430  0.395  0.363  0.355  0.000  0.000
 2004 037   170   154      2    140    647     5   157   125  0.441  0.509  0.532  0.438  0.429  0.394  0.363  0.355  0.000  0.000
 2004 038   171   152      2    140    647     5   157   125  0.442  0.501  0.526  0.436  0.427  0.394  0.363  0.355  0.000  0.000
 2004 039   172   150      2    140    647     5   157   125  0.442  0.496  0.521  0.434  0.426  0.394  0.363  0.355  0.000  0.000
 2004 040   173   148      2    140    647     5   157   125  0.441  0.491  0.518  0.432  0.425  0.394  0.364  0.355  0.000  0.000
 2004 041   174   147      2    140    647     5   157   125  0.440  0.488  0.514  0.431  0.424  0.393  0.364  0.355  0.000  0.000
