*WATER BALANCE OUTPUT FILE

*DSSAT Cropping System Model Ver. 4.0.2.000               Aug 11, 2016; 20:48:08

*RUN   1        : UYSB                    
 MODEL          : CRGRO040 - Soybean         
 EXPERIMENT     : UYSB0175 SB    late to create DSS                             
 TREATMENT  1   : UYSB                    


     WATER BALANCE PARAMETERS
     ========================                  --mm--

     Soil H20 (start) on Year/day 1990/220     490.84
     Soil H20 (final) on Year/day 1991/028     551.54
     Effective Irrigation                        0.00
     Precipitation                             751.80
     Drainage                                  386.46
     Runoff                                      2.38
     Soil Evaporation                          302.02
     Transpiration                               0.23
     Potential ET                              841.28

     Final Balance                            -0.0001


*DSSAT Cropping System Model Ver. 4.0.2.000               Aug 11, 2016; 20:48:08

*RUN   2        : UYSB                    
 MODEL          : CRGRO040 - Soybean         
 EXPERIMENT     : UYSB0175 SB    late to create DSS                             
 TREATMENT  1   : UYSB                    


     WATER BALANCE PARAMETERS
     ========================                  --mm--

     Soil H20 (start) on Year/day 1991/220     490.84
     Soil H20 (final) on Year/day 1992/026     485.91
     Effective Irrigation                        0.00
     Precipitation                             647.90
     Drainage                                  146.59
     Runoff                                      4.83
     Soil Evaporation                          245.49
     Transpiration                             255.93
     Potential ET                              737.01

     Final Balance                            -0.0003


*DSSAT Cropping System Model Ver. 4.0.2.000               Aug 11, 2016; 20:48:08

*RUN   3        : UYSB                    
 MODEL          : CRGRO040 - Soybean         
 EXPERIMENT     : UYSB0175 SB    late to create DSS                             
 TREATMENT  1   : UYSB                    


     WATER BALANCE PARAMETERS
     ========================                  --mm--

     Soil H20 (start) on Year/day 1992/220     490.84
     Soil H20 (final) on Year/day 1993/033     545.45
     Effective Irrigation                        0.00
     Precipitation                             600.00
     Drainage                                    0.00
     Runoff                                     17.29
     Soil Evaporation                          260.02
     Transpiration                             268.09
     Potential ET                              831.17

     Final Balance                            -0.0001

