*PLANT N OUTPUT FILE

*DSSAT Cropping System Model Ver. 4.0.2.000               Aug 11, 2016; 14:49:51

*RUN   1        : UYMZ                    
 MODEL          : MZCER040 - Maize           
 EXPERIMENT     : UYMZ0136 MZ    late to create DSS                             
 TREATMENT  1   : UYMZ                    

@YEAR DOY   DAS   DAP   CNAD   GNAD   VNAD   GN%D   VN%D   NUPC   LNAD   SNAD   LN%D   SN%D   RN%D   SNN0C   SNN1C
 2000 223     3     0    0.0    0.0    0.0   0.00   0.00    0.0    0.0    0.0    0.0   0.00   0.00    0.00    0.00
 2000 224     4     1    0.0    0.0    0.0   0.00   0.00    0.0    0.0    0.0    0.0   0.00   0.00    0.00    0.00
 2000 225     5     2    0.0    0.0    0.0   0.00   0.00    0.0    0.0    0.0    0.0   0.00   0.00    0.00    0.00
 2000 226     6     3    0.0    0.0    0.0   0.00   0.00    0.0    0.0    0.0    0.0   0.00   0.00    0.00    0.00
 2000 227     7     4    0.0    0.0    0.0   0.00   0.00    0.0    0.0    0.0    0.0   0.00   0.00    0.00    0.00
 2000 228     8     5    0.0    0.0    0.0   0.00   0.00    0.0    0.0    0.0    0.0   0.00   0.00    0.00    0.00
 2000 229     9     6    0.0    0.0    0.0   0.00   0.00    0.0    0.0    0.0    0.0   0.00   0.00    0.00    0.00
 2000 230    10     7    0.0    0.0    0.0   0.00   0.00    0.0    0.0    0.0    0.0   0.00   0.00    0.00    0.00
 2000 231    11     8    0.0    0.0    0.0   0.00   0.00    0.0    0.0    0.0    0.0   0.00   0.00    0.00    0.00
 2000 232    12     9    0.0    0.0    0.0   0.00   0.00    0.0    0.0    0.0    0.0   0.00   0.00    0.00    0.00
 2000 233    13    10    0.0    0.0    0.0   0.00   0.00    0.0    0.0    0.0    0.0   0.00   0.00    0.00    0.00
 2000 234    14    11    0.0    0.0    0.0   0.00   0.00    0.0    0.0    0.0    0.0   0.00   0.00    0.00    0.00
 2000 235    15    12    1.2    0.0    1.2   0.00   4.40    0.0    0.6    0.6    4.4   4.40   0.00    0.00    0.00
 2000 236    16    13    1.3    0.0    1.3   0.00   4.51    0.2    0.6    0.6    4.5   4.51   1.08    0.00    0.00
 2000 237    17    14    1.3    0.0    1.3   0.00   4.51    0.2    0.6    0.6    4.5   4.51   1.07    0.00    0.00
 2000 238    18    15    1.3    0.0    1.3   0.00   4.51    0.2    0.6    0.6    4.5   4.51   1.05    0.00    0.00
 2000 239    19    16    1.3    0.0    1.3   0.00   4.46    0.2    0.6    0.6    4.5   4.46   1.19    0.00    0.00
 2000 240    20    17    1.2    0.0    1.2   0.00   4.45    0.2    0.6    0.6    4.5   4.45   1.20    0.00    0.00
 2000 241    21    18    1.2    0.0    1.2   0.00   4.45    0.2    0.6    0.6    4.5   4.45   1.25    0.00    0.00
 2000 242    22    19    1.2    0.0    1.2   0.00   4.45    0.2    0.6    0.6    4.5   4.45   1.19    0.00    0.00
 2000 243    23    20    1.2    0.0    1.2   0.00   4.45    0.2    0.6    0.6    4.5   4.45   1.11    0.00    0.00
 2000 244    24    21    1.2    0.0    1.2   0.00   4.42    0.2    0.6    0.6    4.4   4.42   1.16    0.00    0.00
 2000 245    25    22    1.2    0.0    1.2   0.00   4.42    0.3    0.6    0.6    4.4   4.42   1.21    0.00    0.01
 2000 246    26    23    1.2    0.0    1.2   0.00   4.42    0.3    0.6    0.6    4.4   4.42   1.19    0.00    0.01
 2000 247    27    24    1.2    0.0    1.2   0.00   4.42    0.3    0.6    0.6    4.4   4.42   1.17    0.00    0.01
 2000 248    28    25    1.2    0.0    1.2   0.00   4.42    0.3    0.6    0.6    4.4   4.42   1.15    0.00    0.01
 2000 249    29    26    1.2    0.0    1.2   0.00   4.42    0.3    0.6    0.6    4.4   4.42   1.12    0.00    0.01
 2000 250    30    27    1.2    0.0    1.2   0.00   4.42    0.3    0.6    0.6    4.4   4.42   1.07    0.00    0.01
 2000 251    31    28    1.2    0.0    1.2   0.00   4.34    0.3    0.6    0.6    4.3   4.34   1.15    0.00    0.01
 2000 252    32    29    1.2    0.0    1.2   0.00   3.62    0.3    0.7    0.5    3.6   3.62   1.13    0.00    0.01
 2000 253    33    30    1.4    0.0    1.4   0.00   3.61    0.5    0.9    0.5    3.6   3.61   1.09    0.00    0.01
 2000 254    34    31    1.7    0.0    1.7   0.00   3.48    0.8    1.2    0.5    3.5   3.48   1.12    0.00    0.01
 2000 255    35    32    2.0    0.0    2.0   0.00   3.71    1.2    1.5    0.5    3.7   3.71   1.16    0.00    0.01
 2000 256    36    33    2.3    0.0    2.3   0.00   4.03    1.6    1.8    0.6    4.0   4.03   1.32    0.00    0.01
 2000 257    37    34    2.4    0.0    2.4   0.00   4.21    1.7    1.8    0.6    4.2   4.21   1.29    0.00    0.02
 2000 258    38    35    2.4    0.0    2.4   0.00   4.15    1.7    1.9    0.6    4.1   4.15   1.25    0.00    0.02
 2000 259    39    36    2.5    0.0    2.5   0.00   4.05    1.8    1.9    0.6    4.0   4.05   1.23    0.00    0.02
 2000 260    40    37    2.6    0.0    2.6   0.00   3.89    2.0    2.0    0.5    3.9   3.89   1.30    0.00    0.02
 2000 261    41    38    2.8    0.0    2.8   0.00   3.84    2.3    2.2    0.5    3.8   3.84   1.27    0.00    0.03
 2000 262    42    39    3.0    0.0    3.0   0.00   3.80    2.5    2.5    0.5    3.8   3.80   1.12    0.00    0.03
 2000 263    43    40    3.3    0.0    3.3   0.00   3.72    3.0    2.7    0.5    3.7   3.72   1.25    0.00    0.03
 2000 264    44    41    3.6    0.0    3.6   0.00   3.84    3.4    3.1    0.5    3.8   3.84   1.18    0.00    0.04
 2000 265    45    42    3.8    0.0    3.8   0.00   3.83    3.8    3.3    0.5    3.8   3.83   1.18    0.00    0.04
 2000 266    46    43    4.1    0.0    4.1   0.00   3.76    4.6    3.6    0.5    3.8   3.76   1.33    0.00    0.05
 2000 267    47    44    4.4    0.0    4.4   0.00   3.67    5.0    3.9    0.5    3.7   3.67   1.21    0.00    0.06
 2000 268    48    45    4.9    0.0    4.9   0.00   3.96    6.0    4.4    0.6    4.0   3.96   1.41    0.00    0.07
 2000 269    49    46    5.0    0.0    5.0   0.00   3.96    6.4    4.5    0.6    4.0   3.96   1.43    0.00    0.08
 2000 270    50    47    5.1    0.0    5.1   0.00   3.90    6.5    4.6    0.5    3.9   3.90   1.30    0.00    0.09
 2000 271    51    48    5.3    0.0    5.3   0.00   3.56    6.7    4.8    0.5    3.6   3.56   1.19    0.00    0.10
 2000 272    52    49    6.0    0.0    6.0   0.00   3.43    7.7    5.5    0.5    3.4   3.43   1.18    0.00    0.12
 2000 273    53    50    6.9    0.0    6.9   0.00   3.41    8.9    6.4    0.5    3.4   3.41   1.16    0.00    0.13
 2000 274    54    51    8.0    0.0    8.0   0.00   3.40   10.3    7.5    0.5    3.4   3.40   1.16    0.00    0.15
 2000 275    55    52    9.2    0.0    9.2   0.00   3.40   11.8    8.7    0.5    3.4   3.40   1.16    0.00    0.16
 2000 276    56    53   10.6    0.0   10.6   0.00   3.52   13.0   10.1    0.5    3.5   3.52   1.08    0.00    0.18
 2000 277    57    54   11.7    0.0   11.7   0.00   3.75   14.6   11.1    0.5    3.8   3.75   1.15    0.00    0.20
 2000 278    58    55   12.1    0.0   12.1   0.00   3.65   16.0   11.6    0.5    3.7   3.65   1.22    0.00    0.22
 2000 279    59    56   12.7    0.0   12.7   0.00   3.57   17.6   12.2    0.5    3.6   3.57   1.25    0.00    0.25
 2000 280    60    57   14.4    0.0   14.4   0.00   3.82   20.2   13.8    0.5    3.8   3.82   1.25    0.00    0.28
 2000 281    61    58   15.0    0.0   15.0   0.00   3.68   21.6   14.5    0.5    3.7   3.68   1.21    0.00    0.31
 2000 282    62    59   16.1    0.0   16.1   0.00   3.57   23.7   15.6    0.5    3.6   3.57   1.20    0.00    0.35
 2000 283    63    60   17.2    0.0   17.2   0.00   3.55   24.2   16.7    0.5    3.5   3.55   1.09    0.00    0.40
 2000 284    64    61   18.3    0.0   18.3   0.00   3.53   27.3   17.8    0.5    3.5   3.53   1.21    0.00    0.44
 2000 285    65    62   19.6    0.0   19.6   0.00   3.50   29.8   19.1    0.5    3.5   3.50   1.19    0.00    0.49
 2000 286    66    63   22.2    0.0   22.2   0.00   3.46   32.9   21.5    0.6    3.5   3.46   1.16    0.00    0.54
 2000 287    67    64   23.8    0.0   23.8   0.00   3.43   35.9   23.1    0.7    3.4   3.43   1.17    0.00    0.60
 2000 288    68    65   25.6    0.0   25.6   0.00   3.40   36.8   24.8    0.8    3.4   3.40   1.08    0.00    0.67
 2000 289    69    66   27.7    0.0   27.7   0.00   3.38   39.0   26.7    1.0    3.4   3.38   1.08    0.00    0.73
 2000 290    70    67   30.5    0.0   30.5   0.00   3.35   42.2   29.3    1.2    3.3   3.35   1.09    0.00    0.79
 2000 291    71    68   33.5    0.0   33.5   0.00   3.31   45.4   31.9    1.6    3.3   3.31   1.09    0.00    0.86
 2000 292    72    69   36.4    0.0   36.4   0.00   3.28   48.1   34.4    2.0    3.3   3.28   1.07    0.00    0.92
 2000 293    73    70   39.2    0.0   39.2   0.00   3.25   51.9   36.8    2.5    3.2   3.25   1.11    0.00    0.99
 2000 294    74    71   42.2    0.0   42.2   0.00   3.21   54.4   39.1    3.1    3.2   3.21   1.07    0.00    1.06
 2000 295    75    72   45.9    0.0   45.9   0.00   3.15   59.7   41.9    4.0    3.1   3.15   1.13    0.00    1.12
 2000 296    76    73   49.0    0.0   49.0   0.00   3.13   62.3   44.3    4.7    3.1   3.13   1.08    0.00    1.20
 2000 297    77    74   51.6    0.0   51.6   0.00   3.10   65.0   46.2    5.5    3.1   3.10   1.08    0.00    1.27
 2000 298    78    75   54.2    0.0   54.2   0.00   3.08   67.7   48.0    6.3    3.1   3.08   1.08    0.00    1.34
 2000 299    79    76   55.6    0.0   55.6   0.00   3.03   70.4   48.8    6.8    3.0   3.03   1.11    0.00    1.42
 2000 300    80    77   57.6    0.0   57.6   0.00   3.01   73.0   50.0    7.6    3.0   3.01   1.11    0.00    1.50
 2000 301    81    78   59.8    0.0   59.8   0.00   2.94   77.3   51.2    8.7    2.9   2.94   1.12    0.00    1.58
 2000 302    82    79   62.0    0.0   62.0   0.00   2.91   81.5   52.4    9.6    2.9   2.91   1.12    0.00    1.67
 2000 303    83    80   63.6    0.0   63.6   0.00   2.89   84.9   53.3   10.3    2.9   2.89   1.10    0.00    1.77
 2000 304    84    81   65.4    0.0   65.4   0.00   2.78   87.7   53.8   11.6    2.8   2.78   1.06    0.00    1.88
 2000 305    85    82   67.2    0.0   67.2   0.00   2.65   90.1   54.1   13.1    2.6   2.65   1.03    0.00    2.00
 2000 306    86    83   69.0    0.0   69.0   0.00   2.58   92.2   54.7   14.3    2.6   2.58   1.04    0.00    2.12
 2000 307    87    84   70.4    0.0   70.4   0.00   2.47   93.9   54.7   15.7    2.5   2.47   1.01    0.00    2.24
 2000 308    88    85   71.5    0.0   71.5   0.00   2.39   95.4   54.6   16.9    2.4   2.39   0.96    0.00    2.36
 2000 309    89    86   72.7    0.0   72.7   0.00   2.31   97.0   54.6   18.1    2.3   2.31   0.94    0.00    2.49
 2000 310    90    87   73.6    0.0   73.6   0.00   2.22   98.2   54.3   19.3    2.2   2.22   0.90    0.00    2.62
 2000 311    91    88   74.4    0.0   74.4   0.00   2.11   99.3   53.7   20.7    2.1   2.11   0.87    0.00    2.74
 2000 312    92    89   75.3    0.0   75.3   0.00   2.02  100.3   54.1   21.2    2.0   2.02   0.88    0.00    2.87
 2000 313    93    90   76.1    0.0   76.1   0.00   1.90  101.3   53.5   22.6    1.9   1.90   0.88    0.00    3.00
 2000 314    94    91   76.8    0.0   76.8   0.00   1.85  102.2   53.3   23.6    1.9   1.85   0.89    0.00    3.13
 2000 315    95    92   77.5    0.0   77.5   0.00   1.77  102.9   52.4   25.0    1.8   1.77   0.86    0.00    3.26
 2000 316    96    93   78.0    0.0   78.0   0.00   1.68  103.6   51.4   26.6    1.7   1.68   0.85    0.00    3.40
 2000 317    97    94   78.4    0.0   78.4   0.00   1.60  104.1   50.3   28.1    1.6   1.60   0.84    0.00    3.53
 2000 318    98    95   79.1    0.0   79.1   0.00   1.56  104.8   49.9   29.2    1.6   1.56   0.82    0.00    3.66
 2000 319    99    96   79.6    0.0   79.6   0.00   1.55  105.5   49.9   29.7    1.5   1.55   0.79    0.00    3.79
 2000 320   100    97   80.1    0.0   80.1   0.00   1.54  106.1   49.9   30.2    1.5   1.54   0.77    0.00    3.93
 2000 321   101    98   80.5    0.0   80.5   0.00   1.52  106.7   49.6   30.9    1.5   1.52   0.73    0.00    4.06
 2000 322   102    99   82.1    0.0   82.1   0.00   1.50  108.7   49.8   32.3    1.5   1.50   0.71    0.00    4.20
 2000 323   103   100   83.5    0.0   83.5   0.00   1.48  110.6   49.8   33.7    1.5   1.48   0.69    0.00    4.33
 2000 324   104   101   84.8    0.0   84.8   0.00   1.45  112.3   49.5   35.3    1.4   1.45   0.68    0.00    4.47
 2000 325   105   102   86.0    0.0   86.0   0.00   1.43  113.9   49.6   36.4    1.4   1.43   0.66    0.00    4.62
 2000 326   106   103   87.1    0.0   87.1   0.00   1.42  115.5   49.6   37.6    1.4   1.42   0.64    0.00    4.76
 2000 327   107   104   88.2    0.0   88.2   0.00   1.39  116.9   49.2   38.9    1.4   1.39   0.64    0.00    4.90
 2000 328   108   105   89.2    0.0   89.2   0.00   1.35  118.2   48.7   40.4    1.3   1.35   0.64    0.00    5.05
 2000 329   109   106   89.9    0.0   89.9   0.00   1.33  119.2   48.6   41.3    1.3   1.33   0.63    0.00    5.20
 2000 330   110   107   90.8    0.0   90.8   0.00   1.32  120.4   48.6   42.2    1.3   1.32   0.62    0.00    5.35
 2000 331   111   108   91.7    0.0   91.7   0.00   1.30  121.6   48.4   43.2    1.3   1.30   0.61    0.00    5.50
 2000 332   112   109   92.5    0.0   92.5   0.00   1.27  122.7   48.2   44.3    1.3   1.27   0.61    0.00    5.65
 2000 333   113   110   93.3    0.0   93.3   0.00   1.26  123.7   48.2   45.1    1.3   1.26   0.62    0.00    5.81
 2000 334   114   111   93.9    0.0   93.9   0.00   1.38  124.6   52.3   41.7    1.4   1.38   0.62    0.00    5.96
 2000 335   115   112   94.5    0.0   94.5   0.00   1.39  125.5   52.1   42.5    1.4   1.39   0.60    0.00    6.12
 2000 336   116   113   95.1    0.0   95.1   0.00   1.40  126.3   51.8   43.3    1.4   1.40   0.59    0.00    6.28
 2000 337   117   114   95.6    0.0   95.6   0.00   1.41  127.1   51.4   44.2    1.4   1.41   0.58    0.00    6.44
 2000 338   118   115   96.1    0.0   96.1   0.00   1.41  127.9   50.9   45.1    1.4   1.41   0.58    0.00    6.60
 2000 339   119   116   96.5    0.0   96.5   0.00   1.42  128.6   50.5   46.0    1.4   1.42   0.58    0.00    6.76
 2000 340   120   117   97.0    0.0   97.0   0.00   1.43  129.5   50.1   47.0    1.4   1.43   0.58    0.00    6.92
 2000 341   121   118   97.8    0.0   97.8   0.00   1.44  130.7   49.6   48.1    1.4   1.44   0.57    0.00    7.09
 2000 342   122   119   98.5    0.0   98.5   0.00   1.44  132.0   49.0   49.5    1.4   1.44   0.58    0.00    7.26
 2000 343   123   120   99.2    0.0   99.2   0.00   1.45  133.2   48.3   50.9    1.4   1.45   0.58    0.00    7.43
 2000 344   124   121   99.8    0.0   99.8   0.00   1.45  134.4   47.5   52.3    1.5   1.45   0.58    0.00    7.60
 2000 345   125   122  100.4    0.0  100.4   0.00   1.46  135.6   46.8   53.7    1.5   1.46   0.59    0.00    7.77
 2000 346   126   123  100.9    0.0  100.9   0.00   1.46  136.5   45.9   55.1    1.5   1.46   0.60    0.00    7.95
 2000 347   127   124  101.6    3.7   97.9   1.38   1.42  137.8   44.5   53.4    1.4   1.42   0.61    0.00    8.13
 2000 348   128   125  102.1    7.2   94.9   1.38   1.37  138.8   43.1   51.8    1.4   1.37   0.61    0.00    8.31
 2000 349   129   126  102.7   10.6   92.1   1.37   1.33  139.8   41.8   50.2    1.3   1.33   0.62    0.00    8.50
 2000 350   130   127  103.2   14.0   89.2   1.35   1.29  140.7   40.6   48.7    1.3   1.29   0.62    0.00    8.69
 2000 351   131   128  103.7   15.3   88.3   1.35   1.28  141.6   40.1   48.2    1.3   1.28   0.62    0.00    8.88
 2000 352   132   129  104.4   17.3   87.1   1.34   1.26  142.9   39.6   47.5    1.3   1.26   0.63    0.00    9.07
 2000 353   133   130  104.9   20.2   84.7   1.33   1.23  144.0   38.5   46.2    1.2   1.23   0.63    0.00    9.26
 2000 354   134   131  105.5   22.5   83.0   1.32   1.20  145.0   37.7   45.3    1.2   1.20   0.63    0.00    9.46
 2000 355   135   132  106.0   25.2   80.8   1.31   1.17  145.9   36.7   44.1    1.2   1.17   0.64    0.00    9.66
 2000 356   136   133  106.5   27.2   79.3   1.30   1.15  146.9   36.1   43.2    1.1   1.15   0.65    0.00    9.86
 2000 357   137   134  107.0   30.3   76.7   1.29   1.11  147.7   34.8   41.8    1.1   1.11   0.65    0.00   10.06
 2000 358   138   135  107.5   32.2   75.3   1.29   1.09  148.7   34.2   41.1    1.1   1.09   0.66    0.00   10.27
 2000 359   139   136  108.0   34.3   73.7   1.28   1.07  149.5   33.5   40.2    1.1   1.07   0.66    0.00   10.47
 2000 360   140   137  108.5   37.3   71.3   1.27   1.03  150.4   32.4   38.9    1.0   1.03   0.66    0.00   10.68
 2000 361   141   138  109.0   40.3   68.7   1.26   0.99  151.3   31.2   37.5    1.0   0.99   0.67    0.00   10.89
 2000 362   142   139  109.4   43.2   66.2   1.25   0.97  151.8   30.6   35.6    1.0   0.97   0.67    0.00   11.10
 2000 363   143   140  109.7   45.6   64.1   1.24   0.94  152.5   29.7   34.5    0.9   0.94   0.68    0.00   11.32
 2000 364   144   141  110.2   47.8   62.5   1.23   0.92  153.4   28.8   33.6    0.9   0.92   0.69    0.00   11.53
 2000 365   145   142  110.8   50.0   60.8   1.23   0.88  154.3   27.6   33.1    0.9   0.88   0.69    0.00   11.75
 2000 366   146   143  111.5   52.7   58.8   1.21   0.85  155.4   26.7   32.1    0.9   0.85   0.70    0.00   11.96
 2001 001   147   144  112.1   55.2   56.9   1.20   0.82  156.3   25.8   31.0    0.8   0.82   0.70    0.00   12.18
 2001 002   148   145  112.6   57.6   55.0   1.19   0.80  157.3   25.0   30.0    0.8   0.80   0.71    0.00   12.41
 2001 003   149   146  113.2   60.0   53.1   1.18   0.77  158.1   24.2   29.0    0.8   0.77   0.72    0.00   12.63
 2001 004   150   147  113.8   62.4   51.3   1.17   0.75  159.1   23.4   27.9    0.7   0.75   0.72    0.00   12.85
 2001 005   151   148  114.3   64.7   49.6   1.15   0.72  159.9   22.5   27.0    0.7   0.72   0.73    0.00   13.08
 2001 006   152   149  115.0   67.0   48.0   1.14   0.69  161.0   21.8   26.2    0.7   0.69   0.74    0.00   13.31
 2001 007   153   150  115.5   69.1   46.3   1.13   0.68  161.8   21.5   24.8    0.7   0.68   0.75    0.00   13.54
 2001 008   154   151  116.0   71.2   44.8   1.12   0.67  162.6   21.0   23.8    0.7   0.67   0.75    0.00   13.77
 2001 009   155   152  116.4   73.2   43.2   1.10   0.65  163.2   20.4   22.8    0.6   0.65   0.76    0.00   14.00
 2001 010   156   153  116.8   74.7   42.1   1.09   0.64  163.9   20.2   21.9    0.6   0.64   0.77    0.00   14.23
 2001 011   157   154  117.3   75.9   41.4   1.09   0.63  164.6   19.7   21.7    0.6   0.63   0.77    0.00   14.47
 2001 012   158   155  117.9   76.9   41.0   1.08   0.62  165.7   19.4   21.6    0.6   0.62   0.78    0.00   14.70
 2001 013   159   156  118.6   78.5   40.1   1.07   0.61  166.6   19.1   21.0    0.6   0.61   0.79    0.00   14.94
 2001 014   160   157  119.1   80.3   38.7   1.06   0.60  167.4   18.8   19.9    0.6   0.60   0.80    0.00   15.18
 2001 015   161   158  119.5   82.1   37.4   1.05   0.59  168.0   18.4   19.0    0.6   0.59   0.81    0.00   15.42
 2001 016   162   159  120.1   83.8   36.3   1.04   0.58  168.9   18.2   18.1    0.6   0.58   0.81    0.00   15.66
 2001 017   163   160  121.0   85.5   35.4   1.02   0.58  169.9   18.3   17.2    0.6   0.58   0.82    0.00   15.90
 2001 018   164   161  121.7   87.2   34.5   1.01   0.58  170.8   18.3   16.2    0.6   0.58   0.82    0.00   16.14
 2001 019   165   162  121.7   87.2   34.5   1.01   0.58  171.7   18.3   16.2    0.6   0.58   0.82    0.00   16.14
 2001 020   166   163  121.7   87.2   34.5   1.01   0.58  172.6   18.3   16.2    0.6   0.58   0.82    0.00   16.14
 2001 021   167   164  121.7   87.2   34.5   1.01   0.58  173.5   18.3   16.2    0.6   0.58   0.82    0.00   16.14
 2001 022   168   165  121.7   87.2   34.5   1.01   0.58  174.4   18.3   16.2    0.6   0.58   0.82    0.00   16.14

*DSSAT Cropping System Model Ver. 4.0.2.000               Aug 11, 2016; 14:49:51

*RUN   2        : UYMZ                    
 MODEL          : MZCER040 - Maize           
 EXPERIMENT     : UYMZ0136 MZ    late to create DSS                             
 TREATMENT  1   : UYMZ                    

@YEAR DOY   DAS   DAP   CNAD   GNAD   VNAD   GN%D   VN%D   NUPC   LNAD   SNAD   LN%D   SN%D   RN%D   SNN0C   SNN1C
 2001 223     3     0    0.0    0.0    0.0   0.00   0.00    0.0    0.0    0.0    0.0   0.00   0.00    0.00    0.00
 2001 224     4     1    0.0    0.0    0.0   0.00   0.00    0.0    0.0    0.0    0.0   0.00   0.00    0.00    0.00
 2001 225     5     2    0.0    0.0    0.0   0.00   0.00    0.0    0.0    0.0    0.0   0.00   0.00    0.00    0.00
 2001 226     6     3    0.0    0.0    0.0   0.00   0.00    0.0    0.0    0.0    0.0   0.00   0.00    0.00    0.00
 2001 227     7     4    0.0    0.0    0.0   0.00   0.00    0.0    0.0    0.0    0.0   0.00   0.00    0.00    0.00
 2001 228     8     5    0.0    0.0    0.0   0.00   0.00    0.0    0.0    0.0    0.0   0.00   0.00    0.00    0.00
 2001 229     9     6    0.0    0.0    0.0   0.00   0.00    0.0    0.0    0.0    0.0   0.00   0.00    0.00    0.00
 2001 230    10     7    1.2    0.0    1.2   0.00   4.40    0.0    0.6    0.6    4.4   4.40   0.00    0.00    0.00
 2001 231    11     8    1.3    0.0    1.3   0.00   4.56    0.2    0.6    0.6    4.6   4.56   1.08    0.00    0.00
 2001 232    12     9    1.3    0.0    1.3   0.00   4.55    0.2    0.6    0.6    4.5   4.55   1.11    0.00    0.00
 2001 233    13    10    1.3    0.0    1.3   0.00   4.54    0.2    0.6    0.6    4.5   4.54   1.12    0.00    0.00
 2001 234    14    11    1.3    0.0    1.3   0.00   4.53    0.2    0.6    0.6    4.5   4.53   1.11    0.00    0.00
 2001 235    15    12    1.3    0.0    1.3   0.00   4.53    0.2    0.6    0.6    4.5   4.53   1.09    0.00    0.00
 2001 236    16    13    1.3    0.0    1.3   0.00   4.53    0.2    0.6    0.6    4.5   4.53   1.06    0.00    0.00
 2001 237    17    14    1.3    0.0    1.3   0.00   4.48    0.2    0.6    0.6    4.5   4.48   1.13    0.00    0.00
 2001 238    18    15    1.3    0.0    1.3   0.00   4.48    0.2    0.6    0.6    4.5   4.48   1.08    0.00    0.00
 2001 239    19    16    1.2    0.0    1.2   0.00   4.43    0.2    0.6    0.6    4.4   4.43   1.15    0.00    0.00
 2001 240    20    17    1.2    0.0    1.2   0.00   4.42    0.3    0.6    0.6    4.4   4.42   1.20    0.00    0.01
 2001 241    21    18    1.2    0.0    1.2   0.00   4.40    0.3    0.6    0.6    4.4   4.40   1.19    0.00    0.01
 2001 242    22    19    1.2    0.0    1.2   0.00   4.37    0.3    0.6    0.6    4.4   4.37   1.18    0.00    0.01
 2001 243    23    20    1.2    0.0    1.2   0.00   4.25    0.3    0.6    0.6    4.2   4.25   1.12    0.00    0.01
 2001 244    24    21    1.2    0.0    1.2   0.00   3.64    0.3    0.7    0.5    3.6   3.64   1.09    0.00    0.01
 2001 245    25    22    1.5    0.0    1.5   0.00   4.03    0.6    0.9    0.6    4.0   4.03   1.13    0.00    0.01
 2001 246    26    23    1.6    0.0    1.6   0.00   4.03    0.7    1.0    0.6    4.0   4.03   1.15    0.00    0.01
 2001 247    27    24    1.6    0.0    1.6   0.00   4.08    0.8    1.1    0.6    4.1   4.08   1.16    0.00    0.01
 2001 248    28    25    1.7    0.0    1.7   0.00   3.97    0.9    1.2    0.6    4.0   3.97   1.22    0.00    0.02
 2001 249    29    26    1.8    0.0    1.8   0.00   3.82    1.1    1.3    0.5    3.8   3.82   1.17    0.00    0.02
 2001 250    30    27    2.0    0.0    2.0   0.00   3.82    1.3    1.5    0.5    3.8   3.82   1.12    0.00    0.02
 2001 251    31    28    2.2    0.0    2.2   0.00   3.86    1.8    1.7    0.5    3.9   3.86   1.40    0.00    0.02
 2001 252    32    29    2.4    0.0    2.4   0.00   3.99    2.0    1.9    0.6    4.0   3.99   1.24    0.00    0.03
 2001 253    33    30    2.6    0.0    2.6   0.00   3.93    2.4    2.0    0.6    3.9   3.93   1.38    0.00    0.03
 2001 254    34    31    2.7    0.0    2.7   0.00   3.91    2.7    2.2    0.5    3.9   3.91   1.36    0.00    0.04
 2001 255    35    32    2.9    0.0    2.9   0.00   3.88    3.0    2.4    0.5    3.9   3.88   1.24    0.00    0.04
 2001 256    36    33    3.1    0.0    3.1   0.00   3.72    3.3    2.6    0.5    3.7   3.72   1.20    0.00    0.05
 2001 257    37    34    3.5    0.0    3.5   0.00   3.92    3.8    2.9    0.5    3.9   3.92   1.21    0.00    0.06
 2001 258    38    35    3.7    0.0    3.7   0.00   4.01    4.3    3.1    0.6    4.0   4.01   1.30    0.00    0.06
 2001 259    39    36    3.8    0.0    3.8   0.00   4.07    4.4    3.2    0.6    4.1   4.07   1.28    0.00    0.07
 2001 260    40    37    3.8    0.0    3.8   0.00   3.97    4.7    3.3    0.6    4.0   3.97   1.29    0.00    0.08
 2001 261    41    38    4.0    0.0    4.0   0.00   3.68    5.0    3.4    0.5    3.7   3.68   1.20    0.00    0.09
 2001 262    42    39    4.4    0.0    4.4   0.00   3.59    5.5    3.9    0.5    3.6   3.59   1.16    0.00    0.10
 2001 263    43    40    5.0    0.0    5.0   0.00   3.46    6.5    4.5    0.5    3.5   3.46   1.19    0.00    0.12
 2001 264    44    41    5.8    0.0    5.8   0.00   3.45    7.2    5.3    0.5    3.5   3.45   1.11    0.00    0.13
 2001 265    45    42    6.7    0.0    6.7   0.00   3.45    8.5    6.2    0.5    3.5   3.45   1.16    0.00    0.14
 2001 266    46    43    7.7    0.0    7.7   0.00   3.48    9.8    7.3    0.5    3.5   3.48   1.14    0.00    0.16
 2001 267    47    44    8.8    0.0    8.8   0.00   3.37   10.9    8.3    0.5    3.4   3.37   1.12    0.00    0.17
 2001 268    48    45   10.3    0.0   10.3   0.00   3.63   12.4    9.7    0.5    3.6   3.63   1.10    0.00    0.19
 2001 269    49    46   11.1    0.0   11.1   0.00   3.67   13.6   10.6    0.5    3.7   3.67   1.15    0.00    0.21
 2001 270    50    47   11.8    0.0   11.8   0.00   3.72   14.3   11.3    0.5    3.7   3.72   1.12    0.00    0.23
 2001 271    51    48   12.3    0.0   12.3   0.00   3.76   15.1   11.8    0.5    3.8   3.76   1.13    0.00    0.25
 2001 272    52    49   12.7    0.0   12.7   0.00   3.48   15.9   12.2    0.5    3.5   3.48   1.15    0.00    0.27
 2001 273    53    50   14.0    0.0   14.0   0.00   3.47   17.0   13.5    0.5    3.5   3.47   1.10    0.00    0.29
 2001 274    54    51   14.2    0.0   14.2   0.00   3.49   17.3   13.7    0.5    3.5   3.49   1.04    0.00    0.31
 2001 275    55    52   15.4    0.0   15.4   0.00   3.67   19.3   14.9    0.5    3.7   3.67   1.14    0.00    0.33
 2001 276    56    53   15.8    0.0   15.8   0.00   3.57   19.9   15.3    0.5    3.6   3.57   1.13    0.00    0.36
 2001 277    57    54   16.8    0.0   16.8   0.00   3.53   21.6   16.3    0.5    3.5   3.53   1.16    0.00    0.38
 2001 278    58    55   18.2    0.0   18.2   0.00   3.51   24.1   17.6    0.5    3.5   3.51   1.20    0.00    0.41
 2001 279    59    56   19.8    0.0   19.8   0.00   3.48   26.3   19.2    0.6    3.5   3.48   1.17    0.00    0.45
 2001 280    60    57   21.2    0.0   21.2   0.00   3.46   27.4   20.6    0.6    3.5   3.46   1.09    0.00    0.49
 2001 281    61    58   22.8    0.0   22.8   0.00   3.37   29.4   22.1    0.7    3.4   3.37   1.11    0.00    0.52
 2001 282    62    59   24.1    0.0   24.1   0.00   3.31   31.2   23.3    0.8    3.3   3.31   1.10    0.00    0.56
 2001 283    63    60   25.0    0.0   25.0   0.00   3.13   32.8   24.1    0.9    3.1   3.13   1.04    0.00    0.60
 2001 284    64    61   25.8    0.0   25.8   0.00   2.94   34.1   24.8    1.0    2.9   2.94   0.96    0.00    0.65
 2001 285    65    62   26.6    0.0   26.6   0.00   2.80   35.2   25.4    1.2    2.8   2.80   0.94    0.00    0.70
 2001 286    66    63   27.1    0.0   27.1   0.00   2.64   36.1   25.8    1.4    2.6   2.64   0.88    0.00    0.75
 2001 287    67    64   27.7    0.0   27.7   0.00   2.46   36.9   26.1    1.6    2.5   2.46   0.83    0.00    0.80
 2001 288    68    65   28.3    0.0   28.3   0.00   2.32   37.6   26.4    1.9    2.3   2.32   0.84    0.00    0.85
 2001 289    69    66   29.4    0.0   29.4   0.00   2.22   39.0   27.2    2.2    2.2   2.22   0.85    0.00    0.90
 2001 290    70    67   32.0    0.0   32.0   0.00   2.24   42.2   29.2    2.7    2.2   2.24   0.86    0.00    0.95
 2001 291    71    68   35.6    0.0   35.6   0.00   2.29   46.7   32.1    3.5    2.3   2.29   0.89    0.00    1.01
 2001 292    72    69   38.8    0.0   38.8   0.00   2.28   50.8   34.4    4.4    2.3   2.28   0.89    0.00    1.07
 2001 293    73    70   41.6    0.0   41.6   0.00   2.24   54.2   36.2    5.4    2.2   2.24   0.89    0.00    1.14
 2001 294    74    71   43.7    0.0   43.7   0.00   2.26   57.0   37.7    6.0    2.3   2.26   0.86    0.00    1.21
 2001 295    75    72   45.5    0.0   45.5   0.00   2.27   59.7   39.0    6.5    2.3   2.27   0.82    0.00    1.28
 2001 296    76    73   47.0    0.0   47.0   0.00   2.24   61.9   39.8    7.2    2.2   2.24   0.78    0.00    1.35
 2001 297    77    74   48.3    0.0   48.3   0.00   2.16   63.8   40.3    8.0    2.2   2.16   0.76    0.00    1.43
 2001 298    78    75   49.5    0.0   49.5   0.00   2.02   65.4   40.3    9.2    2.0   2.02   0.74    0.00    1.52
 2001 299    79    76   50.5    0.0   50.5   0.00   1.96   66.8   40.5   10.1    2.0   1.96   0.76    0.00    1.60
 2001 300    80    77   51.0    0.0   51.0   0.00   1.88   67.4   40.2   10.7    1.9   1.88   0.76    0.00    1.69
 2001 301    81    78   51.4    0.0   51.4   0.00   1.83   67.9   40.1   11.3    1.8   1.83   0.77    0.00    1.78
 2001 302    82    79   51.9    0.0   51.9   0.00   1.78   68.5   40.0   11.9    1.8   1.78   0.77    0.00    1.86
 2001 303    83    80   52.6    0.0   52.6   0.00   1.72   69.5   39.8   12.8    1.7   1.72   0.73    0.00    1.95
 2001 304    84    81   53.5    0.0   53.5   0.00   1.67   70.6   39.8   13.7    1.7   1.67   0.70    0.00    2.04
 2001 305    85    82   54.1    0.0   54.1   0.00   1.62   71.5   39.5   14.6    1.6   1.62   0.67    0.00    2.13
 2001 306    86    83   54.7    0.0   54.7   0.00   1.52   72.3   39.5   15.2    1.5   1.52   0.66    0.00    2.22
 2001 307    87    84   55.3    0.0   55.3   0.00   1.45   73.0   39.3   15.9    1.5   1.45   0.64    0.00    2.32
 2001 308    88    85   55.8    0.0   55.8   0.00   1.40   73.7   39.0   16.8    1.4   1.40   0.61    0.00    2.41
 2001 309    89    86   56.3    0.0   56.3   0.00   1.34   74.4   38.5   17.8    1.3   1.34   0.60    0.00    2.51
 2001 310    90    87   56.9    0.0   56.9   0.00   1.30   75.0   38.2   18.7    1.3   1.30   0.61    0.00    2.60
 2001 311    91    88   57.1    0.0   57.1   0.00   1.27   75.4   37.9   19.3    1.3   1.27   0.61    0.00    2.70
 2001 312    92    89   57.5    0.0   57.5   0.00   1.25   75.9   37.6   19.9    1.2   1.25   0.60    0.00    2.79
 2001 313    93    90   58.4    0.0   58.4   0.00   1.23   77.1   37.6   20.8    1.2   1.23   0.59    0.00    2.89
 2001 314    94    91   59.2    0.0   59.2   0.00   1.21   78.0   37.5   21.7    1.2   1.21   0.60    0.00    2.99
 2001 315    95    92   60.1    0.0   60.1   0.00   1.20   79.2   37.5   22.6    1.2   1.20   0.58    0.00    3.09
 2001 316    96    93   61.2    0.0   61.2   0.00   1.18   80.6   37.5   23.7    1.2   1.18   0.57    0.00    3.19
 2001 317    97    94   62.3    0.0   62.3   0.00   1.17   82.0   37.6   24.7    1.2   1.17   0.58    0.00    3.29
 2001 318    98    95   63.3    0.0   63.3   0.00   1.16   83.3   37.6   25.7    1.2   1.16   0.58    0.00    3.39
 2001 319    99    96   64.2    0.0   64.2   0.00   1.15   84.5   37.6   26.6    1.1   1.15   0.56    0.00    3.50
 2001 320   100    97   65.1    0.0   65.1   0.00   1.14   85.6   37.8   27.3    1.1   1.14   0.55    0.00    3.60
 2001 321   101    98   65.8    0.0   65.8   0.00   1.14   86.6   37.9   28.0    1.1   1.14   0.54    0.00    3.71
 2001 322   102    99   66.5    0.0   66.5   0.00   1.12   87.6   37.8   28.8    1.1   1.12   0.52    0.00    3.82
 2001 323   103   100   67.2    0.0   67.2   0.00   1.11   88.5   37.6   29.6    1.1   1.11   0.52    0.00    3.93
 2001 324   104   101   67.9    0.0   67.9   0.00   1.08   89.5   37.3   30.5    1.1   1.08   0.51    0.00    4.04
 2001 325   105   102   68.6    0.0   68.6   0.00   1.07   90.4   37.2   31.4    1.1   1.07   0.52    0.00    4.15
 2001 326   106   103   69.3    0.0   69.3   0.00   1.16   91.3   40.2   29.1    1.2   1.16   0.52    0.00    4.26
 2001 327   107   104   69.9    0.0   69.9   0.00   1.17   92.2   40.0   30.0    1.2   1.17   0.51    0.00    4.38
 2001 328   108   105   70.5    0.0   70.5   0.00   1.18   93.0   39.8   30.6    1.2   1.18   0.52    0.00    4.49
 2001 329   109   106   70.9    0.0   70.9   0.00   1.19   93.7   39.7   31.2    1.2   1.19   0.52    0.00    4.61
 2001 330   110   107   71.5    0.0   71.5   0.00   1.21   94.5   39.5   31.9    1.2   1.21   0.52    0.00    4.73
 2001 331   111   108   72.0    0.0   72.0   0.00   1.21   95.3   39.2   32.7    1.2   1.21   0.52    0.00    4.85
 2001 332   112   109   72.7    0.0   72.7   0.00   1.23   96.4   39.1   33.6    1.2   1.23   0.51    0.00    4.97
 2001 333   113   110   73.2    0.0   73.2   0.00   1.24   97.3   38.8   34.4    1.2   1.24   0.50    0.00    5.09
 2001 334   114   111   73.7    0.0   73.7   0.00   1.25   98.1   38.6   35.2    1.3   1.25   0.51    0.00    5.21
 2001 335   115   112   74.2    0.0   74.2   0.00   1.26   99.0   38.2   36.0    1.3   1.26   0.51    0.00    5.34
 2001 336   116   113   74.9    0.0   74.9   0.00   1.27  100.1   37.9   37.0    1.3   1.27   0.50    0.00    5.46
 2001 337   117   114   75.5    0.0   75.5   0.00   1.29  101.1   37.5   38.0    1.3   1.29   0.51    0.00    5.59
 2001 338   118   115   76.0    0.0   76.0   0.00   1.30  102.1   37.1   38.9    1.3   1.30   0.52    0.00    5.73
 2001 339   119   116   76.5    0.0   76.5   0.00   1.31  102.9   36.6   39.9    1.3   1.31   0.53    0.00    5.86
 2001 340   120   117   77.0    0.0   77.0   0.00   1.32  103.8   36.0   41.0    1.3   1.32   0.53    0.00    5.99
 2001 341   121   118   77.4    2.2   75.2   1.23   1.29  104.6   35.2   40.0    1.3   1.29   0.54    0.00    6.13
 2001 342   122   119   77.9    3.0   74.8   1.22   1.28  105.5   35.0   39.8    1.3   1.28   0.54    0.00    6.27
 2001 343   123   120   78.3    3.6   74.7   1.22   1.28  106.3   35.0   39.8    1.3   1.28   0.54    0.00    6.41
 2001 344   124   121   78.8    4.8   73.9   1.22   1.27  107.1   34.6   39.3    1.3   1.27   0.54    0.00    6.56
 2001 345   125   122   79.2    6.1   73.1   1.22   1.25  107.9   34.2   38.9    1.3   1.25   0.54    0.00    6.70
 2001 346   126   123   79.6    8.0   71.6   1.22   1.23  108.7   33.5   38.1    1.2   1.23   0.55    0.00    6.85
 2001 347   127   124   80.0   10.1   70.0   1.21   1.20  109.5   32.7   37.2    1.2   1.20   0.56    0.00    7.00
 2001 348   128   125   80.5   12.0   68.4   1.21   1.17  110.3   32.0   36.4    1.2   1.17   0.56    0.00    7.15
 2001 349   129   126   80.9   13.8   67.1   1.21   1.15  111.2   31.4   35.7    1.2   1.15   0.57    0.00    7.30
 2001 350   130   127   81.3   15.3   66.1   1.21   1.13  112.0   30.9   35.1    1.1   1.13   0.57    0.00    7.45
 2001 351   131   128   81.8   16.9   64.8   1.20   1.11  112.8   30.3   34.5    1.1   1.11   0.57    0.00    7.61
 2001 352   132   129   82.2   18.6   63.6   1.20   1.09  113.5   29.7   33.8    1.1   1.09   0.58    0.00    7.76
 2001 353   133   130   82.6   20.5   62.0   1.19   1.06  114.3   29.0   33.0    1.1   1.06   0.58    0.00    7.92
 2001 354   134   131   82.9   22.4   60.5   1.19   1.04  114.9   28.3   32.2    1.0   1.04   0.59    0.00    8.08
 2001 355   135   132   83.3   23.6   59.6   1.19   1.02  115.6   27.9   31.7    1.0   1.02   0.60    0.00    8.25
 2001 356   136   133   83.6   25.1   58.5   1.18   1.00  116.3   27.4   31.1    1.0   1.00   0.60    0.00    8.41
 2001 357   137   134   84.0   26.4   57.7   1.18   0.99  117.1   27.0   30.7    1.0   0.99   0.60    0.00    8.58
 2001 358   138   135   84.5   27.9   56.6   1.17   0.97  118.0   26.5   30.1    1.0   0.97   0.61    0.00    8.74
 2001 359   139   136   85.0   29.5   55.5   1.17   0.95  118.8   26.0   29.5    1.0   0.95   0.61    0.00    8.91
 2001 360   140   137   85.4   31.3   54.1   1.17   0.93  119.6   25.3   28.8    0.9   0.93   0.62    0.00    9.08
 2001 361   141   138   85.8   33.1   52.8   1.16   0.90  120.5   24.7   28.1    0.9   0.90   0.62    0.00    9.26
 2001 362   142   139   86.3   34.8   51.4   1.15   0.88  121.3   24.1   27.4    0.9   0.88   0.63    0.00    9.43
 2001 363   143   140   86.7   36.6   50.2   1.15   0.86  122.2   23.5   26.7    0.9   0.86   0.63    0.00    9.61
 2001 364   144   141   87.2   38.3   48.9   1.14   0.84  123.0   22.9   26.0    0.8   0.84   0.64    0.00    9.79
 2001 365   145   142   87.7   40.0   47.7   1.14   0.82  123.9   22.3   25.4    0.8   0.82   0.65    0.00    9.97
 2002 001   146   143   88.1   41.6   46.5   1.13   0.80  124.8   21.8   24.7    0.8   0.80   0.66    0.00   10.15
 2002 002   147   144   88.6   43.3   45.3   1.12   0.78  125.6   21.2   24.1    0.8   0.78   0.66    0.00   10.33
 2002 003   148   145   89.0   44.8   44.2   1.12   0.76  126.4   20.7   23.5    0.8   0.76   0.67    0.00   10.52
 2002 004   149   146   89.4   46.3   43.2   1.11   0.74  127.2   20.2   23.0    0.7   0.74   0.68    0.00   10.71
 2002 005   150   147   89.8   47.5   42.3   1.10   0.73  127.9   20.0   22.3    0.7   0.73   0.68    0.00   10.90
 2002 006   151   148   90.2   48.9   41.3   1.10   0.72  128.6   19.5   21.7    0.7   0.72   0.69    0.00   11.09
 2002 007   152   149   90.6   49.9   40.6   1.09   0.70  129.3   19.0   21.6    0.7   0.70   0.70    0.00   11.28
 2002 008   153   150   91.0   51.1   39.8   1.09   0.68  130.0   18.6   21.2    0.7   0.68   0.70    0.00   11.47
 2002 009   154   151   91.4   52.4   38.9   1.08   0.67  130.7   18.2   20.7    0.7   0.67   0.71    0.00   11.67
 2002 010   155   152   91.8   53.8   37.9   1.07   0.65  131.4   17.8   20.2    0.7   0.65   0.72    0.00   11.87
 2002 011   156   153   92.2   55.2   37.0   1.06   0.63  132.1   17.3   19.7    0.6   0.63   0.73    0.00   12.07
 2002 012   157   154   92.6   56.5   36.1   1.05   0.62  132.7   16.9   19.2    0.6   0.62   0.74    0.00   12.26
 2002 013   158   155   93.0   57.8   35.2   1.05   0.60  133.5   16.5   18.7    0.6   0.60   0.74    0.00   12.47
 2002 014   159   156   93.3   58.7   34.6   1.04   0.60  134.0   16.4   18.2    0.6   0.60   0.75    0.00   12.67
 2002 015   160   157   93.7   59.4   34.3   1.03   0.59  134.8   16.2   18.2    0.6   0.59   0.76    0.00   12.87
 2002 016   161   158   94.3   60.1   34.2   1.03   0.59  135.7   16.0   18.1    0.6   0.59   0.77    0.00   13.08
 2002 017   162   159   94.3   60.1   34.2   1.03   0.59  136.7   16.0   18.1    0.6   0.59   0.77    0.00   13.08
 2002 018   163   160   94.3   60.1   34.2   1.03   0.59  137.6   16.0   18.1    0.6   0.59   0.77    0.00   13.08
 2002 019   164   161   94.3   60.1   34.2   1.03   0.59  138.6   16.0   18.1    0.6   0.59   0.77    0.00   13.08
 2002 020   165   162   94.3   60.1   34.2   1.03   0.59  139.6   16.0   18.1    0.6   0.59   0.77    0.00   13.08

*DSSAT Cropping System Model Ver. 4.0.2.000               Aug 11, 2016; 14:49:51

*RUN   3        : UYMZ                    
 MODEL          : MZCER040 - Maize           
 EXPERIMENT     : UYMZ0136 MZ    late to create DSS                             
 TREATMENT  1   : UYMZ                    

@YEAR DOY   DAS   DAP   CNAD   GNAD   VNAD   GN%D   VN%D   NUPC   LNAD   SNAD   LN%D   SN%D   RN%D   SNN0C   SNN1C
 2002 223     3     0    0.0    0.0    0.0   0.00   0.00    0.0    0.0    0.0    0.0   0.00   0.00    0.00    0.00
 2002 224     4     1    0.0    0.0    0.0   0.00   0.00    0.0    0.0    0.0    0.0   0.00   0.00    0.00    0.00
 2002 225     5     2    0.0    0.0    0.0   0.00   0.00    0.0    0.0    0.0    0.0   0.00   0.00    0.00    0.00
 2002 226     6     3    0.0    0.0    0.0   0.00   0.00    0.0    0.0    0.0    0.0   0.00   0.00    0.00    0.00
 2002 227     7     4    0.0    0.0    0.0   0.00   0.00    0.0    0.0    0.0    0.0   0.00   0.00    0.00    0.00
 2002 228     8     5    0.0    0.0    0.0   0.00   0.00    0.0    0.0    0.0    0.0   0.00   0.00    0.00    0.00
 2002 229     9     6    0.0    0.0    0.0   0.00   0.00    0.0    0.0    0.0    0.0   0.00   0.00    0.00    0.00
 2002 230    10     7    0.0    0.0    0.0   0.00   0.00    0.0    0.0    0.0    0.0   0.00   0.00    0.00    0.00
 2002 231    11     8    0.0    0.0    0.0   0.00   0.00    0.0    0.0    0.0    0.0   0.00   0.00    0.00    0.00
 2002 232    12     9    0.0    0.0    0.0   0.00   0.00    0.0    0.0    0.0    0.0   0.00   0.00    0.00    0.00
 2002 233    13    10    1.2    0.0    1.2   0.00   4.40    0.0    0.6    0.6    4.4   4.40   0.00    0.00    0.00
 2002 234    14    11    1.3    0.0    1.3   0.00   4.55    0.2    0.6    0.6    4.6   4.55   1.09    0.00    0.00
 2002 235    15    12    1.3    0.0    1.3   0.00   4.55    0.2    0.6    0.6    4.6   4.55   1.08    0.00    0.00
 2002 236    16    13    1.3    0.0    1.3   0.00   4.55    0.2    0.6    0.6    4.6   4.55   1.04    0.00    0.00
 2002 237    17    14    1.3    0.0    1.3   0.00   4.55    0.2    0.6    0.6    4.6   4.55   0.97    0.00    0.00
 2002 238    18    15    1.2    0.0    1.2   0.00   4.40    0.2    0.6    0.6    4.4   4.40   1.19    0.00    0.00
 2002 239    19    16    1.2    0.0    1.2   0.00   4.36    0.2    0.6    0.6    4.4   4.36   1.23    0.00    0.00
 2002 240    20    17    1.2    0.0    1.2   0.00   3.82    0.3    0.7    0.5    3.8   3.82   1.20    0.00    0.00
 2002 241    21    18    1.4    0.0    1.4   0.00   3.88    0.4    0.8    0.5    3.9   3.88   1.18    0.00    0.00
 2002 242    22    19    1.5    0.0    1.5   0.00   4.12    0.8    0.9    0.6    4.1   4.12   1.50    0.00    0.01
 2002 243    23    20    1.6    0.0    1.6   0.00   4.23    0.9    1.0    0.6    4.2   4.23   1.50    0.00    0.01
 2002 244    24    21    1.6    0.0    1.6   0.00   4.29    0.9    1.0    0.6    4.3   4.29   1.43    0.00    0.01
 2002 245    25    22    1.6    0.0    1.6   0.00   4.20    1.0    1.0    0.6    4.2   4.20   1.45    0.00    0.01
 2002 246    26    23    1.6    0.0    1.6   0.00   4.03    1.0    1.0    0.6    4.0   4.03   1.34    0.00    0.01
 2002 247    27    24    1.7    0.0    1.7   0.00   3.91    1.1    1.2    0.5    3.9   3.91   1.19    0.00    0.02
 2002 248    28    25    1.9    0.0    1.9   0.00   3.74    1.2    1.3    0.5    3.7   3.74   1.16    0.00    0.02
 2002 249    29    26    2.1    0.0    2.1   0.00   4.01    1.5    1.5    0.6    4.0   4.01   1.09    0.00    0.02
 2002 250    30    27    2.2    0.0    2.2   0.00   4.07    1.8    1.7    0.6    4.1   4.07   1.28    0.00    0.03
 2002 251    31    28    2.3    0.0    2.3   0.00   4.04    1.9    1.8    0.6    4.0   4.04   1.29    0.00    0.03
 2002 252    32    29    2.4    0.0    2.4   0.00   3.86    2.1    1.9    0.5    3.9   3.86   1.22    0.00    0.03
 2002 253    33    30    2.6    0.0    2.6   0.00   3.86    2.2    2.1    0.5    3.9   3.86   1.09    0.00    0.04
 2002 254    34    31    2.9    0.0    2.9   0.00   3.72    2.5    2.3    0.5    3.7   3.72   1.08    0.00    0.04
 2002 255    35    32    3.2    0.0    3.2   0.00   3.95    3.1    2.6    0.6    3.9   3.95   1.27    0.00    0.05
 2002 256    36    33    3.4    0.0    3.4   0.00   3.89    3.5    2.8    0.5    3.9   3.89   1.27    0.00    0.05
 2002 257    37    34    3.6    0.0    3.6   0.00   3.84    3.9    3.0    0.5    3.8   3.84   1.25    0.00    0.06
 2002 258    38    35    3.9    0.0    3.9   0.00   3.83    4.3    3.3    0.5    3.8   3.83   1.19    0.00    0.07
 2002 259    39    36    4.1    0.0    4.1   0.00   3.78    4.6    3.6    0.5    3.8   3.78   1.13    0.00    0.08
 2002 260    40    37    4.5    0.0    4.5   0.00   3.63    4.9    4.0    0.5    3.6   3.63   1.08    0.00    0.08
 2002 261    41    38    5.0    0.0    5.0   0.00   3.65    5.5    4.5    0.5    3.7   3.65   1.10    0.00    0.09
 2002 262    42    39    5.6    0.0    5.6   0.00   3.76    6.2    5.1    0.5    3.8   3.76   1.14    0.00    0.10
 2002 263    43    40    6.0    0.0    6.0   0.00   3.94    7.4    5.5    0.6    3.9   3.94   1.36    0.00    0.11
 2002 264    44    41    6.2    0.0    6.2   0.00   3.84    7.8    5.7    0.5    3.8   3.84   1.29    0.00    0.12
 2002 265    45    42    6.5    0.0    6.5   0.00   3.69    8.3    6.0    0.5    3.7   3.69   1.21    0.00    0.14
 2002 266    46    43    7.1    0.0    7.1   0.00   3.70    9.5    6.5    0.5    3.7   3.70   1.23    0.00    0.15
 2002 267    47    44    7.6    0.0    7.6   0.00   3.69   10.5    7.1    0.5    3.7   3.69   1.21    0.00    0.17
 2002 268    48    45    8.2    0.0    8.2   0.00   3.51   11.6    7.7    0.5    3.5   3.51   1.20    0.00    0.19
 2002 269    49    46    9.2    0.0    9.2   0.00   3.53   13.2    8.7    0.5    3.5   3.53   1.19    0.00    0.21
 2002 270    50    47   10.2    0.0   10.2   0.00   3.45   14.8    9.7    0.5    3.5   3.45   1.18    0.00    0.24
 2002 271    51    48   11.5    0.0   11.5   0.00   3.51   16.5   11.0    0.5    3.5   3.51   1.16    0.00    0.27
 2002 272    52    49   12.7    0.0   12.7   0.00   3.54   17.4   12.2    0.5    3.5   3.54   1.08    0.00    0.30
 2002 273    53    50   13.7    0.0   13.7   0.00   3.45   19.3   13.2    0.5    3.5   3.45   1.15    0.00    0.33
 2002 274    54    51   16.4    0.0   16.4   0.00   3.78   22.8   15.8    0.5    3.8   3.78   1.17    0.00    0.36
 2002 275    55    52   17.1    0.0   17.1   0.00   3.68   24.1   16.6    0.5    3.7   3.68   1.15    0.00    0.40
 2002 276    56    53   18.4    0.0   18.4   0.00   3.57   26.7   17.9    0.5    3.6   3.57   1.19    0.00    0.44
 2002 277    57    54   20.5    0.0   20.5   0.00   3.53   28.7   19.9    0.5    3.5   3.53   1.13    0.00    0.49
 2002 278    58    55   22.9    0.0   22.9   0.00   3.49   31.5   22.3    0.6    3.5   3.49   1.12    0.00    0.54
 2002 279    59    56   25.9    0.0   25.9   0.00   3.44   34.8   25.2    0.8    3.4   3.44   1.11    0.00    0.59
 2002 280    60    57   28.1    0.0   28.1   0.00   3.41   36.9   27.2    0.9    3.4   3.41   1.08    0.00    0.64
 2002 281    61    58   29.1    0.0   29.1   0.00   3.38   38.3   28.1    1.0    3.4   3.38   1.10    0.00    0.69
 2002 282    62    59   30.1    0.0   30.1   0.00   3.34   39.6   29.0    1.1    3.3   3.34   1.10    0.00    0.74
 2002 283    63    60   31.2    0.0   31.2   0.00   3.31   41.0   29.9    1.2    3.3   3.31   1.10    0.00    0.79
 2002 284    64    61   33.5    0.0   33.5   0.00   3.27   43.4   31.9    1.6    3.3   3.27   1.09    0.00    0.85
 2002 285    65    62   35.7    0.0   35.7   0.00   3.05   46.4   33.4    2.3    3.1   3.05   1.08    0.00    0.90
 2002 286    66    63   37.5    0.0   37.5   0.00   2.78   48.6   34.4    3.1    2.8   2.78   1.03    0.00    0.96
 2002 287    67    64   41.9    0.0   41.9   0.00   2.71   54.0   37.5    4.3    2.7   2.71   1.03    0.00    1.02
 2002 288    68    65   47.1    0.0   47.1   0.00   2.82   59.5   41.6    5.6    2.8   2.82   1.05    0.00    1.09
 2002 289    69    66   51.2    0.0   51.2   0.00   2.87   64.0   44.6    6.6    2.9   2.87   1.07    0.00    1.16
 2002 290    70    67   53.7    0.0   53.7   0.00   2.85   68.0   46.1    7.5    2.9   2.85   1.05    0.00    1.23
 2002 291    71    68   56.2    0.0   56.2   0.00   2.77   71.6   47.5    8.8    2.8   2.77   1.03    0.00    1.30
 2002 292    72    69   57.5    0.0   57.5   0.00   2.66   73.0   47.8    9.7    2.7   2.66   1.04    0.00    1.38
 2002 293    73    70   59.1    0.0   59.1   0.00   2.58   74.7   48.3   10.8    2.6   2.58   1.04    0.00    1.47
 2002 294    74    71   60.3    0.0   60.3   0.00   2.59   76.4   49.1   11.2    2.6   2.59   1.02    0.00    1.55
 2002 295    75    72   61.4    0.0   61.4   0.00   2.56   77.9   49.6   11.8    2.6   2.56   0.96    0.00    1.64
 2002 296    76    73   62.4    0.0   62.4   0.00   2.49   79.4   49.7   12.7    2.5   2.49   0.91    0.00    1.72
 2002 297    77    74   63.4    0.0   63.4   0.00   2.32   80.7   49.2   14.2    2.3   2.32   0.88    0.00    1.81
 2002 298    78    75   64.3    0.0   64.3   0.00   2.20   81.8   48.8   15.5    2.2   2.20   0.89    0.00    1.91
 2002 299    79    76   64.7    0.0   64.7   0.00   2.04   82.4   47.8   16.9    2.0   2.04   0.86    0.00    2.00
 2002 300    80    77   65.3    0.0   65.3   0.00   1.97   83.0   47.5   17.8    2.0   1.97   0.87    0.00    2.09
 2002 301    81    78   65.7    0.0   65.7   0.00   1.90   83.5   47.0   18.7    1.9   1.90   0.84    0.00    2.19
 2002 302    82    79   66.1    0.0   66.1   0.00   1.80   84.0   47.2   18.9    1.8   1.80   0.84    0.00    2.28
 2002 303    83    80   66.9    0.0   66.9   0.00   1.76   84.8   47.3   19.5    1.8   1.76   0.85    0.00    2.37
 2002 304    84    81   67.5    0.0   67.5   0.00   1.67   85.5   46.8   20.6    1.7   1.67   0.81    0.00    2.47
 2002 305    85    82   68.1    0.0   68.1   0.00   1.60   86.4   46.4   21.8    1.6   1.60   0.78    0.00    2.56
 2002 306    86    83   68.8    0.0   68.8   0.00   1.53   87.1   45.7   23.1    1.5   1.53   0.77    0.00    2.66
 2002 307    87    84   69.1    0.0   69.1   0.00   1.49   87.5   45.3   23.8    1.5   1.49   0.77    0.00    2.76
 2002 308    88    85   69.4    0.0   69.4   0.00   1.47   87.8   45.1   24.3    1.5   1.47   0.75    0.00    2.85
 2002 309    89    86   69.7    0.0   69.7   0.00   1.45   88.3   44.9   24.8    1.5   1.45   0.71    0.00    2.95
 2002 310    90    87   70.3    0.0   70.3   0.00   1.43   89.0   44.7   25.6    1.4   1.43   0.67    0.00    3.05
 2002 311    91    88   70.8    0.0   70.8   0.00   1.39   89.6   44.3   26.5    1.4   1.39   0.65    0.00    3.15
 2002 312    92    89   71.6    0.0   71.6   0.00   1.35   90.7   43.9   27.8    1.4   1.35   0.63    0.00    3.24
 2002 313    93    90   72.5    0.0   72.5   0.00   1.33   91.7   43.7   28.8    1.3   1.33   0.64    0.00    3.34
 2002 314    94    91   73.3    0.0   73.3   0.00   1.32   92.7   43.8   29.5    1.3   1.32   0.63    0.00    3.45
 2002 315    95    92   74.1    0.0   74.1   0.00   1.31   93.7   43.7   30.3    1.3   1.31   0.63    0.00    3.55
 2002 316    96    93   74.9    0.0   74.9   0.00   1.29   94.8   43.6   31.3    1.3   1.29   0.61    0.00    3.65
 2002 317    97    94   75.8    0.0   75.8   0.00   1.26   95.8   43.3   32.5    1.3   1.26   0.60    0.00    3.75
 2002 318    98    95   76.5    0.0   76.5   0.00   1.23   96.7   42.9   33.6    1.2   1.23   0.59    0.00    3.86
 2002 319    99    96   77.2    0.0   77.2   0.00   1.20   97.6   42.5   34.6    1.2   1.20   0.59    0.00    3.96
 2002 320   100    97   78.0    0.0   78.0   0.00   1.18   98.6   42.2   35.7    1.2   1.18   0.58    0.00    4.07
 2002 321   101    98   78.7    0.0   78.7   0.00   1.16   99.5   42.1   36.6    1.2   1.16   0.59    0.00    4.18
 2002 322   102    99   79.5    0.0   79.5   0.00   1.14  100.5   41.9   37.6    1.1   1.14   0.58    0.00    4.28
 2002 323   103   100   80.1    0.0   80.1   0.00   1.24  101.3   45.3   34.8    1.2   1.24   0.57    0.00    4.39
 2002 324   104   101   80.5    0.0   80.5   0.00   1.25  101.8   45.0   35.5    1.2   1.25   0.58    0.00    4.50
 2002 325   105   102   81.0    0.0   81.0   0.00   1.26  102.5   44.7   36.3    1.3   1.26   0.57    0.00    4.61
 2002 326   106   103   81.6    0.0   81.6   0.00   1.27  103.4   44.6   37.1    1.3   1.27   0.55    0.00    4.72
 2002 327   107   104   82.4    0.0   82.4   0.00   1.28  104.5   44.3   38.2    1.3   1.28   0.55    0.00    4.84
 2002 328   108   105   83.0    0.0   83.0   0.00   1.28  105.3   43.7   39.2    1.3   1.28   0.55    0.00    4.95
 2002 329   109   106   83.3    0.0   83.3   0.00   1.29  105.7   43.3   40.0    1.3   1.29   0.56    0.00    5.07
 2002 330   110   107   83.7    0.0   83.7   0.00   1.29  106.4   42.7   41.0    1.3   1.29   0.55    0.00    5.18
 2002 331   111   108   84.4    0.0   84.4   0.00   1.30  107.4   42.2   42.2    1.3   1.30   0.56    0.00    5.30
 2002 332   112   109   85.0    0.0   85.0   0.00   1.31  108.4   41.9   43.2    1.3   1.31   0.57    0.00    5.42
 2002 333   113   110   85.6    0.0   85.6   0.00   1.33  109.3   41.5   44.1    1.3   1.33   0.58    0.00    5.54
 2002 334   114   111   86.0    0.0   86.0   0.00   1.33  109.8   40.7   45.2    1.3   1.33   0.58    0.00    5.66
 2002 335   115   112   86.2    0.0   86.2   0.00   1.34  110.2   40.1   46.1    1.3   1.34   0.58    0.00    5.78
 2002 336   116   113   86.5    1.8   84.7   1.26   1.32  110.8   39.4   45.3    1.3   1.32   0.58    0.00    5.91
 2002 337   117   114   86.8    3.6   83.3   1.25   1.30  111.3   38.8   44.5    1.3   1.30   0.58    0.00    6.03
 2002 338   118   115   87.0    5.1   81.9   1.25   1.28  111.6   38.1   43.8    1.3   1.28   0.59    0.00    6.16
 2002 339   119   116   87.3    7.1   80.1   1.25   1.25  112.0   37.3   42.8    1.2   1.25   0.59    0.00    6.28
 2002 340   120   117   87.7    9.2   78.5   1.24   1.22  112.7   36.6   41.9    1.2   1.22   0.60    0.00    6.41
 2002 341   121   118   88.2   10.8   77.4   1.24   1.21  113.5   36.0   41.4    1.2   1.21   0.60    0.00    6.54
 2002 342   122   119   88.6   11.9   76.7   1.24   1.20  114.3   35.7   41.0    1.2   1.20   0.60    0.00    6.67
 2002 343   123   120   89.1   13.5   75.6   1.24   1.18  115.1   35.2   40.4    1.2   1.18   0.60    0.00    6.80
 2002 344   124   121   89.6   15.1   74.5   1.23   1.16  115.9   34.7   39.9    1.2   1.16   0.61    0.00    6.93
 2002 345   125   122   90.0   17.1   73.0   1.23   1.14  116.6   34.0   39.0    1.1   1.14   0.61    0.00    7.06
 2002 346   126   123   90.5   18.9   71.6   1.23   1.12  117.4   33.3   38.3    1.1   1.12   0.61    0.00    7.20
 2002 347   127   124   91.0   20.6   70.3   1.23   1.10  118.1   32.7   37.6    1.1   1.10   0.62    0.00    7.34
 2002 348   128   125   91.4   22.6   68.8   1.22   1.07  118.9   32.0   36.8    1.1   1.07   0.62    0.00    7.48
 2002 349   129   126   91.9   24.5   67.3   1.22   1.05  119.7   31.3   36.0    1.0   1.05   0.63    0.00    7.62
 2002 350   130   127   92.4   26.5   65.9   1.22   1.03  120.5   30.7   35.2    1.0   1.03   0.63    0.00    7.76
 2002 351   131   128   92.8   28.3   64.5   1.21   1.01  121.3   30.0   34.5    1.0   1.01   0.63    0.00    7.90
 2002 352   132   129   93.3   29.9   63.4   1.21   0.99  122.1   29.5   33.9    1.0   0.99   0.63    0.00    8.04
 2002 353   133   130   93.7   31.2   62.5   1.21   0.97  122.9   29.1   33.4    1.0   0.97   0.64    0.00    8.19
 2002 354   134   131   94.1   32.8   61.3   1.20   0.95  123.5   28.5   32.8    1.0   0.95   0.64    0.00    8.34
 2002 355   135   132   94.6   34.4   60.2   1.20   0.94  124.4   28.0   32.2    0.9   0.94   0.64    0.00    8.49
 2002 356   136   133   95.0   36.2   58.8   1.20   0.92  125.1   27.5   31.3    0.9   0.92   0.65    0.00    8.64
 2002 357   137   134   95.3   36.9   58.3   1.19   0.91  125.5   27.1   31.2    0.9   0.91   0.66    0.00    8.79
 2002 358   138   135   95.6   38.0   57.6   1.19   0.90  126.1   26.8   30.8    0.9   0.90   0.65    0.00    8.94
 2002 359   139   136   96.0   39.4   56.6   1.19   0.88  126.8   26.3   30.2    0.9   0.88   0.65    0.00    9.10
 2002 360   140   137   96.5   41.2   55.3   1.18   0.86  127.7   25.7   29.6    0.9   0.86   0.66    0.00    9.25
 2002 361   141   138   97.0   43.0   54.0   1.18   0.84  128.5   25.1   28.8    0.8   0.84   0.66    0.00    9.41
 2002 362   142   139   97.4   44.8   52.7   1.17   0.83  129.3   24.7   27.9    0.8   0.83   0.67    0.00    9.57
 2002 363   143   140   97.9   46.5   51.4   1.17   0.81  130.2   24.3   27.1    0.8   0.81   0.68    0.00    9.73
 2002 364   144   141   98.4   48.2   50.2   1.16   0.79  131.0   23.7   26.4    0.8   0.79   0.69    0.00    9.89
 2002 365   145   142   98.9   49.8   49.1   1.16   0.78  131.9   23.3   25.8    0.8   0.78   0.70    0.00   10.06
 2003 001   146   143   99.4   51.5   47.9   1.15   0.76  132.7   22.7   25.3    0.8   0.76   0.71    0.00   10.22
 2003 002   147   144   99.9   53.0   46.8   1.15   0.74  133.5   22.0   24.8    0.7   0.74   0.72    0.00   10.39
 2003 003   148   145  100.3   54.5   45.8   1.14   0.73  134.3   21.7   24.1    0.7   0.73   0.73    0.00   10.56
 2003 004   149   146  100.8   56.1   44.7   1.14   0.70  135.0   20.9   23.7    0.7   0.70   0.73    0.00   10.73
 2003 005   150   147  101.2   57.6   43.6   1.13   0.68  135.8   20.3   23.3    0.7   0.68   0.74    0.00   10.90
 2003 006   151   148  101.7   59.1   42.6   1.13   0.66  136.6   19.8   22.8    0.7   0.66   0.74    0.00   11.08
 2003 007   152   149  102.2   60.5   41.7   1.12   0.65  137.3   19.4   22.3    0.6   0.65   0.75    0.00   11.25
 2003 008   153   150  102.7   61.9   40.8   1.11   0.63  138.1   19.0   21.8    0.6   0.63   0.75    0.00   11.43
 2003 009   154   151  103.2   63.3   39.9   1.10   0.62  138.9   18.6   21.3    0.6   0.62   0.76    0.00   11.61
 2003 010   155   152  103.2   63.3   39.9   1.10   0.62  139.7   18.6   21.3    0.6   0.62   0.76    0.00   11.61
 2003 011   156   153  103.2   63.3   39.9   1.10   0.62  140.5   18.6   21.3    0.6   0.62   0.76    0.00   11.61
 2003 012   157   154  103.2   63.3   39.9   1.10   0.62  141.3   18.6   21.3    0.6   0.62   0.76    0.00   11.61
 2003 013   158   155  103.2   63.3   39.9   1.10   0.62  142.1   18.6   21.3    0.6   0.62   0.76    0.00   11.61

*DSSAT Cropping System Model Ver. 4.0.2.000               Aug 11, 2016; 14:49:51

*RUN   4        : UYMZ                    
 MODEL          : MZCER040 - Maize           
 EXPERIMENT     : UYMZ0136 MZ    late to create DSS                             
 TREATMENT  1   : UYMZ                    

@YEAR DOY   DAS   DAP   CNAD   GNAD   VNAD   GN%D   VN%D   NUPC   LNAD   SNAD   LN%D   SN%D   RN%D   SNN0C   SNN1C
 2003 223     3     0    0.0    0.0    0.0   0.00   0.00    0.0    0.0    0.0    0.0   0.00   0.00    0.00    0.00
 2003 224     4     1    0.0    0.0    0.0   0.00   0.00    0.0    0.0    0.0    0.0   0.00   0.00    0.00    0.00
 2003 225     5     2    0.0    0.0    0.0   0.00   0.00    0.0    0.0    0.0    0.0   0.00   0.00    0.00    0.00
 2003 226     6     3    0.0    0.0    0.0   0.00   0.00    0.0    0.0    0.0    0.0   0.00   0.00    0.00    0.00
 2003 227     7     4    0.0    0.0    0.0   0.00   0.00    0.0    0.0    0.0    0.0   0.00   0.00    0.00    0.00
 2003 228     8     5    0.0    0.0    0.0   0.00   0.00    0.0    0.0    0.0    0.0   0.00   0.00    0.00    0.00
 2003 229     9     6    0.0    0.0    0.0   0.00   0.00    0.0    0.0    0.0    0.0   0.00   0.00    0.00    0.00
 2003 230    10     7    0.0    0.0    0.0   0.00   0.00    0.0    0.0    0.0    0.0   0.00   0.00    0.00    0.00
 2003 231    11     8    0.0    0.0    0.0   0.00   0.00    0.0    0.0    0.0    0.0   0.00   0.00    0.00    0.00
 2003 232    12     9    0.0    0.0    0.0   0.00   0.00    0.0    0.0    0.0    0.0   0.00   0.00    0.00    0.00
 2003 233    13    10    0.0    0.0    0.0   0.00   0.00    0.0    0.0    0.0    0.0   0.00   0.00    0.00    0.00
 2003 234    14    11    0.0    0.0    0.0   0.00   0.00    0.0    0.0    0.0    0.0   0.00   0.00    0.00    0.00
 2003 235    15    12    0.0    0.0    0.0   0.00   0.00    0.0    0.0    0.0    0.0   0.00   0.00    0.00    0.00
 2003 236    16    13    1.2    0.0    1.2   0.00   4.40    0.0    0.6    0.6    4.4   4.40   0.00    0.00    0.00
 2003 237    17    14    1.3    0.0    1.3   0.00   4.57    0.2    0.6    0.6    4.6   4.57   1.08    0.00    0.00
 2003 238    18    15    1.3    0.0    1.3   0.00   4.57    0.2    0.6    0.6    4.6   4.57   1.08    0.00    0.00
 2003 239    19    16    1.3    0.0    1.3   0.00   4.57    0.2    0.6    0.6    4.6   4.57   1.08    0.00    0.00
 2003 240    20    17    1.3    0.0    1.3   0.00   4.57    0.2    0.6    0.6    4.6   4.57   1.09    0.00    0.00
 2003 241    21    18    1.3    0.0    1.3   0.00   4.57    0.2    0.6    0.6    4.6   4.57   1.09    0.00    0.00
 2003 242    22    19    1.3    0.0    1.3   0.00   4.57    0.2    0.6    0.6    4.6   4.57   1.10    0.00    0.00
 2003 243    23    20    1.3    0.0    1.3   0.00   4.57    0.2    0.6    0.6    4.6   4.57   1.09    0.00    0.00
 2003 244    24    21    1.3    0.0    1.3   0.00   4.57    0.2    0.6    0.6    4.6   4.57   1.08    0.00    0.00
 2003 245    25    22    1.3    0.0    1.3   0.00   4.57    0.2    0.6    0.6    4.6   4.57   1.05    0.00    0.00
 2003 246    26    23    1.3    0.0    1.3   0.00   4.57    0.2    0.6    0.6    4.6   4.57   1.02    0.00    0.00
 2003 247    27    24    1.3    0.0    1.3   0.00   4.57    0.2    0.6    0.6    4.6   4.57   1.00    0.00    0.00
 2003 248    28    25    1.3    0.0    1.3   0.00   4.57    0.2    0.6    0.6    4.6   4.57   0.95    0.00    0.00
 2003 249    29    26    1.2    0.0    1.2   0.00   4.39    0.2    0.6    0.6    4.4   4.39   1.19    0.00    0.00
 2003 250    30    27    1.2    0.0    1.2   0.00   4.39    0.2    0.6    0.6    4.4   4.39   1.13    0.00    0.00
 2003 251    31    28    1.2    0.0    1.2   0.00   4.36    0.2    0.6    0.6    4.4   4.36   1.17    0.00    0.00
 2003 252    32    29    1.2    0.0    1.2   0.00   4.35    0.3    0.6    0.6    4.4   4.35   1.47    0.00    0.00
 2003 253    33    30    1.2    0.0    1.2   0.00   4.35    0.4    0.6    0.6    4.3   4.35   1.47    0.00    0.00
 2003 254    34    31    1.2    0.0    1.2   0.00   4.34    0.4    0.6    0.6    4.3   4.34   1.33    0.00    0.01
 2003 255    35    32    1.2    0.0    1.2   0.00   4.12    0.4    0.6    0.6    4.1   4.12   1.21    0.00    0.01
 2003 256    36    33    1.3    0.0    1.3   0.00   4.12    0.5    0.7    0.6    4.1   4.12   1.28    0.00    0.01
 2003 257    37    34    1.3    0.0    1.3   0.00   4.19    0.6    0.7    0.6    4.2   4.19   1.31    0.00    0.01
 2003 258    38    35    1.4    0.0    1.4   0.00   4.12    0.7    0.8    0.6    4.1   4.12   1.22    0.00    0.02
 2003 259    39    36    1.4    0.0    1.4   0.00   4.09    0.7    0.9    0.6    4.1   4.09   1.19    0.00    0.02
 2003 260    40    37    1.5    0.0    1.5   0.00   4.05    0.8    0.9    0.6    4.1   4.05   1.19    0.00    0.02
 2003 261    41    38    1.6    0.0    1.6   0.00   3.81    1.0    1.0    0.5    3.8   3.81   1.16    0.00    0.02
 2003 262    42    39    1.8    0.0    1.8   0.00   3.58    1.1    1.3    0.5    3.6   3.58   1.08    0.00    0.03
 2003 263    43    40    2.1    0.0    2.1   0.00   3.91    1.6    1.5    0.5    3.9   3.91   1.26    0.00    0.03
 2003 264    44    41    2.2    0.0    2.2   0.00   3.72    1.8    1.7    0.5    3.7   3.72   1.15    0.00    0.03
 2003 265    45    42    2.5    0.0    2.5   0.00   3.48    2.1    2.0    0.5    3.5   3.48   1.11    0.00    0.04
 2003 266    46    43    3.0    0.0    3.0   0.00   3.66    2.6    2.5    0.5    3.7   3.66   1.12    0.00    0.04
 2003 267    47    44    3.4    0.0    3.4   0.00   3.72    3.3    2.9    0.5    3.7   3.72   1.23    0.00    0.05
 2003 268    48    45    3.8    0.0    3.8   0.00   3.80    3.8    3.3    0.5    3.8   3.80   1.24    0.00    0.05
 2003 269    49    46    4.1    0.0    4.1   0.00   3.76    4.2    3.6    0.5    3.8   3.76   1.17    0.00    0.06
 2003 270    50    47    4.5    0.0    4.5   0.00   3.56    4.8    4.0    0.5    3.6   3.56   1.19    0.00    0.06
 2003 271    51    48    5.1    0.0    5.1   0.00   3.89    5.7    4.6    0.5    3.9   3.89   1.27    0.00    0.07
 2003 272    52    49    5.4    0.0    5.4   0.00   3.89    6.5    4.8    0.5    3.9   3.89   1.36    0.00    0.08
 2003 273    53    50    5.6    0.0    5.6   0.00   3.65    6.9    5.1    0.5    3.6   3.65   1.23    0.00    0.09
 2003 274    54    51    6.2    0.0    6.2   0.00   3.49    7.6    5.7    0.5    3.5   3.49   1.16    0.00    0.11
 2003 275    55    52    7.1    0.0    7.1   0.00   3.55    8.6    6.6    0.5    3.5   3.55   1.14    0.00    0.12
 2003 276    56    53    7.9    0.0    7.9   0.00   3.61    9.4    7.4    0.5    3.6   3.61   1.09    0.00    0.13
 2003 277    57    54    8.7    0.0    8.7   0.00   3.55   10.2    8.2    0.5    3.6   3.55   1.09    0.00    0.15
 2003 278    58    55    9.6    0.0    9.6   0.00   3.46   11.4    9.1    0.5    3.5   3.46   1.12    0.00    0.16
 2003 279    59    56   10.9    0.0   10.9   0.00   3.59   13.6   10.4    0.5    3.6   3.59   1.24    0.00    0.17
 2003 280    60    57   11.8    0.0   11.8   0.00   3.70   15.4   11.3    0.5    3.7   3.70   1.25    0.00    0.19
 2003 281    61    58   12.4    0.0   12.4   0.00   3.49   15.7   11.9    0.5    3.5   3.49   1.11    0.00    0.22
 2003 282    62    59   13.6    0.0   13.6   0.00   3.43   18.2   13.1    0.5    3.4   3.43   1.23    0.00    0.24
 2003 283    63    60   15.8    0.0   15.8   0.00   3.88   20.7   15.3    0.5    3.9   3.88   1.22    0.00    0.27
 2003 284    64    61   15.7    0.0   15.7   0.00   3.74   22.0   15.1    0.5    3.7   3.74   1.35    0.00    0.30
 2003 285    65    62   15.8    0.0   15.8   0.00   3.65   22.7   15.3    0.5    3.6   3.65   1.30    0.00    0.34
 2003 286    66    63   16.4    0.0   16.4   0.00   3.57   23.9   15.9    0.5    3.6   3.57   1.21    0.00    0.38
 2003 287    67    64   18.0    0.0   18.0   0.00   3.54   26.3   17.5    0.5    3.5   3.54   1.18    0.00    0.42
 2003 288    68    65   20.1    0.0   20.1   0.00   3.50   29.4   19.6    0.5    3.5   3.50   1.18    0.00    0.47
 2003 289    69    66   22.6    0.0   22.6   0.00   3.46   32.9   22.0    0.6    3.5   3.46   1.17    0.00    0.52
 2003 290    70    67   25.7    0.0   25.7   0.00   3.41   36.5   24.9    0.8    3.4   3.41   1.14    0.00    0.58
 2003 291    71    68   30.2    0.0   30.2   0.00   3.36   40.9   29.1    1.1    3.4   3.36   1.10    0.00    0.64
 2003 292    72    69   33.1    0.0   33.1   0.00   3.32   45.5   31.7    1.4    3.3   3.32   1.16    0.00    0.70
 2003 293    73    70   35.2    0.0   35.2   0.00   3.29   47.3   33.6    1.7    3.3   3.29   1.10    0.00    0.77
 2003 294    74    71   37.9    0.0   37.9   0.00   3.27   52.5   35.9    2.0    3.3   3.27   1.18    0.00    0.83
 2003 295    75    72   40.3    0.0   40.3   0.00   3.24   56.7   37.9    2.4    3.2   3.24   1.18    0.00    0.91
 2003 296    76    73   43.5    0.0   43.5   0.00   3.21   61.4   40.5    3.0    3.2   3.21   1.17    0.00    1.00
 2003 297    77    74   48.1    0.0   48.1   0.00   3.17   66.4   44.0    4.0    3.2   3.17   1.13    0.00    1.09
 2003 298    78    75   52.4    0.0   52.4   0.00   3.12   69.8   47.2    5.1    3.1   3.12   1.07    0.00    1.19
 2003 299    79    76   56.3    0.0   56.3   0.00   3.09   75.7   50.0    6.3    3.1   3.09   1.13    0.00    1.28
 2003 300    80    77   58.4    0.0   58.4   0.00   3.07   80.8   51.5    6.9    3.1   3.07   1.17    0.00    1.39
 2003 301    81    78   61.2    0.0   61.2   0.00   3.04   85.4   53.4    7.8    3.0   3.04   1.16    0.00    1.50
 2003 302    82    79   64.9    0.0   64.9   0.00   3.02   90.6   55.8    9.1    3.0   3.02   1.15    0.00    1.63
 2003 303    83    80   70.5    0.0   70.5   0.00   2.97   97.2   59.1   11.3    3.0   2.97   1.13    0.00    1.76
 2003 304    84    81   73.4    0.0   73.4   0.00   2.95   99.3   60.9   12.5    3.0   2.95   1.08    0.00    1.90
 2003 305    85    82   75.2    0.0   75.2   0.00   2.93  104.9   61.9   13.3    2.9   2.93   1.14    0.00    2.04
 2003 306    86    83   77.1    0.0   77.1   0.00   2.92  109.0   63.0   14.1    2.9   2.92   1.14    0.00    2.19
 2003 307    87    84   79.0    0.0   79.0   0.00   2.89  112.8   64.0   15.1    2.9   2.89   1.13    0.00    2.36
 2003 308    88    85   81.2    0.0   81.2   0.00   2.84  115.9   64.9   16.3    2.8   2.84   1.10    0.00    2.53
 2003 309    89    86   83.0    0.0   83.0   0.00   2.74  118.4   65.2   17.8    2.7   2.74   1.07    0.00    2.71
 2003 310    90    87   84.7    0.0   84.7   0.00   2.61  120.6   65.1   19.6    2.6   2.61   1.05    0.00    2.89
 2003 311    91    88   86.2    0.0   86.2   0.00   2.47  122.4   64.7   21.5    2.5   2.47   1.03    0.00    3.07
 2003 312    92    89   87.6    0.0   87.6   0.00   2.32  124.0   64.0   23.6    2.3   2.32   1.03    0.00    3.26
 2003 313    93    90   88.9    0.0   88.9   0.00   2.19  125.4   64.6   24.3    2.2   2.19   1.03    0.00    3.45
 2003 314    94    91   90.1    0.0   90.1   0.00   2.01  126.7   63.4   26.7    2.0   2.01   1.02    0.00    3.63
 2003 315    95    92   90.9    0.0   90.9   0.00   1.85  127.5   61.6   29.3    1.9   1.85   1.02    0.00    3.82
 2003 316    96    93   91.6    0.0   91.6   0.00   1.79  128.2   60.9   30.6    1.8   1.79   1.02    0.00    4.01
 2003 317    97    94   92.3    0.0   92.3   0.00   1.75  129.1   60.6   31.7    1.8   1.75   0.99    0.00    4.20
 2003 318    98    95   93.1    0.0   93.1   0.00   1.72  130.0   60.3   32.8    1.7   1.72   0.95    0.00    4.38
 2003 319    99    96   93.8    0.0   93.8   0.00   1.66  130.8   59.4   34.4    1.7   1.66   0.93    0.00    4.57
 2003 320   100    97   94.2    0.0   94.2   0.00   1.62  131.3   58.9   35.3    1.6   1.62   0.93    0.00    4.76
 2003 321   101    98   94.5    0.0   94.5   0.00   1.57  131.6   58.1   36.4    1.6   1.57   0.93    0.00    4.95
 2003 322   102    99   95.0    0.0   95.0   0.00   1.55  132.1   57.8   37.2    1.6   1.55   0.92    0.00    5.14
 2003 323   103   100   95.8    0.0   95.8   0.00   1.52  133.0   57.3   38.5    1.5   1.52   0.90    0.00    5.33
 2003 324   104   101   96.9    0.0   96.9   0.00   1.50  134.4   57.3   39.6    1.5   1.50   0.87    0.00    5.52
 2003 325   105   102   97.7    0.0   97.7   0.00   1.48  135.4   57.0   40.7    1.5   1.48   0.84    0.00    5.71
 2003 326   106   103   98.7    0.0   98.7   0.00   1.43  136.6   56.3   42.4    1.4   1.43   0.82    0.00    5.90
 2003 327   107   104   99.6    0.0   99.6   0.00   1.38  137.7   55.5   44.1    1.4   1.38   0.82    0.00    6.09
 2003 328   108   105  100.4    0.0  100.4   0.00   1.37  138.6   55.3   45.0    1.4   1.37   0.82    0.00    6.29
 2003 329   109   106  101.2    0.0  101.2   0.00   1.34  139.6   55.0   46.2    1.3   1.34   0.80    0.00    6.48
 2003 330   110   107  102.1    0.0  102.1   0.00   1.31  140.6   54.6   47.5    1.3   1.31   0.81    0.00    6.68
 2003 331   111   108  102.8    0.0  102.8   0.00   1.28  141.5   54.1   48.7    1.3   1.28   0.79    0.00    6.87
 2003 332   112   109  103.6    0.0  103.6   0.00   1.40  142.5   58.5   45.1    1.4   1.40   0.79    0.00    7.07
 2003 333   113   110  104.3    0.0  104.3   0.00   1.41  143.4   58.2   46.1    1.4   1.41   0.77    0.00    7.26
 2003 334   114   111  105.0    0.0  105.0   0.00   1.42  144.4   57.9   47.2    1.4   1.42   0.78    0.00    7.46
 2003 335   115   112  105.7    0.0  105.7   0.00   1.42  145.2   57.4   48.3    1.4   1.42   0.76    0.00    7.66
 2003 336   116   113  106.3    0.0  106.3   0.00   1.43  146.1   57.0   49.3    1.4   1.43   0.75    0.00    7.86
 2003 337   117   114  107.2    0.0  107.2   0.00   1.44  147.3   56.5   50.6    1.4   1.44   0.75    0.00    8.06
 2003 338   118   115  107.9    0.0  107.9   0.00   1.45  148.3   56.0   51.9    1.4   1.45   0.75    0.00    8.27
 2003 339   119   116  108.4    0.0  108.4   0.00   1.46  149.1   55.4   53.0    1.5   1.46   0.74    0.00    8.47
 2003 340   120   117  109.1    0.0  109.1   0.00   1.47  150.1   54.9   54.2    1.5   1.47   0.72    0.00    8.68
 2003 341   121   118  109.7    0.0  109.7   0.00   1.48  151.2   54.3   55.5    1.5   1.48   0.72    0.00    8.88
 2003 342   122   119  110.4    0.0  110.4   0.00   1.49  152.2   53.7   56.7    1.5   1.49   0.73    0.00    9.09
 2003 343   123   120  110.8    0.0  110.8   0.00   1.50  153.0   53.0   57.8    1.5   1.50   0.71    0.00    9.30
 2003 344   124   121  111.3    0.0  111.3   0.00   1.51  154.0   52.3   59.1    1.5   1.51   0.70    0.00    9.51
 2003 345   125   122  111.7    0.0  111.7   0.00   1.52  154.8   51.4   60.3    1.5   1.52   0.70    0.00    9.73
 2003 346   126   123  112.3    2.0  110.2   1.42   1.50  155.8   50.7   59.5    1.5   1.50   0.70    0.00    9.95
 2003 347   127   124  112.8    4.8  108.0   1.42   1.47  156.7   49.7   58.3    1.5   1.47   0.71    0.00   10.16
 2003 348   128   125  113.2    8.2  105.0   1.41   1.43  157.5   48.3   56.7    1.4   1.43   0.71    0.00   10.39
 2003 349   129   126  113.7   11.0  102.8   1.40   1.40  158.4   47.4   55.3    1.4   1.40   0.72    0.00   10.61
 2003 350   130   127  114.1   12.6  101.4   1.40   1.38  159.0   46.7   54.7    1.4   1.38   0.72    0.00   10.83
 2003 351   131   128  114.6   14.7   99.9   1.39   1.36  159.9   46.0   53.9    1.4   1.36   0.71    0.00   11.06
 2003 352   132   129  115.1   17.2   97.9   1.39   1.33  160.8   45.0   52.8    1.3   1.33   0.71    0.00   11.28
 2003 353   133   130  115.6   20.8   94.8   1.38   1.29  161.6   43.6   51.2    1.3   1.29   0.72    0.00   11.51
 2003 354   134   131  116.0   23.9   92.1   1.37   1.26  162.4   42.7   49.4    1.3   1.26   0.73    0.00   11.74
 2003 355   135   132  116.4   27.4   89.1   1.36   1.21  163.2   41.0   48.1    1.2   1.21   0.73    0.00   11.98
 2003 356   136   133  116.8   29.6   87.2   1.35   1.19  163.8   40.2   47.1    1.2   1.19   0.73    0.00   12.21
 2003 357   137   134  117.3   31.5   85.8   1.35   1.17  164.6   39.5   46.3    1.2   1.17   0.73    0.00   12.45
 2003 358   138   135  117.8   33.9   83.9   1.34   1.14  165.5   38.6   45.3    1.1   1.14   0.74    0.00   12.68
 2003 359   139   136  118.4   37.2   81.2   1.33   1.10  166.4   37.4   43.8    1.1   1.10   0.74    0.00   12.92
 2003 360   140   137  118.9   40.4   78.5   1.32   1.07  167.3   36.1   42.4    1.1   1.07   0.74    0.00   13.16
 2003 361   141   138  119.4   43.5   75.9   1.31   1.05  168.0   35.5   40.4    1.0   1.05   0.75    0.00   13.40
 2003 362   142   139  119.8   45.7   74.0   1.30   1.02  168.7   34.4   39.6    1.0   1.02   0.75    0.00   13.64
 2003 363   143   140  120.2   47.4   72.8   1.30   0.99  169.4   33.5   39.3    1.0   0.99   0.75    0.00   13.89
 2003 364   144   141  120.9   49.8   71.1   1.29   0.97  170.5   32.7   38.4    1.0   0.97   0.76    0.00   14.13
 2003 365   145   142  121.5   51.7   69.8   1.28   0.95  171.4   32.1   37.7    0.9   0.95   0.76    0.00   14.38
 2004 001   146   143  122.0   53.5   68.5   1.27   0.93  172.3   31.5   37.0    0.9   0.93   0.76    0.00   14.63
 2004 002   147   144  122.5   55.6   66.9   1.26   0.91  173.1   30.8   36.1    0.9   0.91   0.76    0.00   14.88
 2004 003   148   145  123.0   58.2   64.8   1.25   0.88  173.9   29.8   35.0    0.9   0.88   0.76    0.00   15.13
 2004 004   149   146  123.6   61.0   62.6   1.24   0.85  174.8   28.8   33.8    0.9   0.85   0.77    0.00   15.38
 2004 005   150   147  124.2   63.7   60.4   1.23   0.82  175.6   27.8   32.6    0.8   0.82   0.77    0.00   15.64
 2004 006   151   148  124.7   66.4   58.3   1.22   0.79  176.5   26.9   31.5    0.8   0.79   0.78    0.00   15.89
 2004 007   152   149  125.3   69.0   56.4   1.21   0.77  177.5   26.0   30.4    0.8   0.77   0.79    0.00   16.15
 2004 008   153   150  125.9   71.5   54.5   1.20   0.74  178.4   25.1   29.4    0.7   0.74   0.79    0.00   16.41
 2004 009   154   151  126.6   73.9   52.6   1.19   0.72  179.3   24.2   28.4    0.7   0.72   0.80    0.00   16.67
 2004 010   155   152  127.1   76.3   50.9   1.17   0.69  180.1   23.4   27.4    0.7   0.69   0.81    0.00   16.93
 2004 011   156   153  127.7   78.5   49.2   1.16   0.67  180.9   22.6   26.5    0.7   0.67   0.81    0.00   17.19
 2004 012   157   154  128.2   80.7   47.5   1.15   0.65  181.7   22.1   25.4    0.7   0.65   0.82    0.00   17.46
 2004 013   158   155  128.6   82.7   45.9   1.14   0.63  182.3   21.5   24.4    0.6   0.63   0.83    0.00   17.72
 2004 014   159   156  129.2   84.8   44.5   1.12   0.62  183.2   20.8   23.6    0.6   0.62   0.83    0.00   17.99
 2004 015   160   157  129.7   86.5   43.2   1.11   0.60  183.9   20.4   22.8    0.6   0.60   0.84    0.00   18.25
 2004 016   161   158  130.3   88.1   42.2   1.10   0.59  184.7   20.0   22.3    0.6   0.59   0.85    0.00   18.52
 2004 017   162   159  130.8   89.9   40.9   1.09   0.58  185.4   19.8   21.1    0.6   0.58   0.86    0.00   18.79
 2004 018   163   160  131.3   91.7   39.6   1.08   0.58  186.2   19.7   20.0    0.6   0.58   0.86    0.00   19.06
 2004 019   164   161  131.8   93.2   38.6   1.06   0.58  186.9   19.5   19.0    0.6   0.58   0.87    0.00   19.33
 2004 020   165   162  132.4   95.0   37.3   1.05   0.57  187.5   19.4   18.0    0.6   0.57   0.88    0.00   19.60
 2004 021   166   163  132.4   95.0   37.3   1.05   0.57  188.2   19.4   18.0    0.6   0.57   0.88    0.00   19.60
 2004 022   167   164  132.4   95.0   37.3   1.05   0.57  188.8   19.4   18.0    0.6   0.57   0.88    0.00   19.60
 2004 023   168   165  132.4   95.0   37.3   1.05   0.57  189.5   19.4   18.0    0.6   0.57   0.88    0.00   19.60
 2004 024   169   166  132.4   95.0   37.3   1.05   0.57  190.1   19.4   18.0    0.6   0.57   0.88    0.00   19.60

*DSSAT Cropping System Model Ver. 4.0.2.000               Aug 11, 2016; 14:49:51

*RUN   5        : UYMZ                    
 MODEL          : MZCER040 - Maize           
 EXPERIMENT     : UYMZ0136 MZ    late to create DSS                             
 TREATMENT  1   : UYMZ                    

@YEAR DOY   DAS   DAP   CNAD   GNAD   VNAD   GN%D   VN%D   NUPC   LNAD   SNAD   LN%D   SN%D   RN%D   SNN0C   SNN1C
 2004 223     3     0    0.0    0.0    0.0   0.00   0.00    0.0    0.0    0.0    0.0   0.00   0.00    0.00    0.00
 2004 224     4     1    0.0    0.0    0.0   0.00   0.00    0.0    0.0    0.0    0.0   0.00   0.00    0.00    0.00
 2004 225     5     2    0.0    0.0    0.0   0.00   0.00    0.0    0.0    0.0    0.0   0.00   0.00    0.00    0.00
 2004 226     6     3    0.0    0.0    0.0   0.00   0.00    0.0    0.0    0.0    0.0   0.00   0.00    0.00    0.00
 2004 227     7     4    0.0    0.0    0.0   0.00   0.00    0.0    0.0    0.0    0.0   0.00   0.00    0.00    0.00
 2004 228     8     5    0.0    0.0    0.0   0.00   0.00    0.0    0.0    0.0    0.0   0.00   0.00    0.00    0.00
 2004 229     9     6    0.0    0.0    0.0   0.00   0.00    0.0    0.0    0.0    0.0   0.00   0.00    0.00    0.00
 2004 230    10     7    0.0    0.0    0.0   0.00   0.00    0.0    0.0    0.0    0.0   0.00   0.00    0.00    0.00
 2004 231    11     8    1.2    0.0    1.2   0.00   4.40    0.0    0.6    0.6    4.4   4.40   0.00    0.00    0.00
 2004 232    12     9    1.3    0.0    1.3   0.00   4.55    0.2    0.6    0.6    4.5   4.55   1.07    0.00    0.00
 2004 233    13    10    1.3    0.0    1.3   0.00   4.55    0.2    0.6    0.6    4.5   4.55   1.07    0.00    0.00
 2004 234    14    11    1.3    0.0    1.3   0.00   4.55    0.2    0.6    0.6    4.5   4.55   1.07    0.00    0.00
 2004 235    15    12    1.3    0.0    1.3   0.00   4.55    0.2    0.6    0.6    4.5   4.55   1.08    0.00    0.00
 2004 236    16    13    1.3    0.0    1.3   0.00   4.53    0.2    0.6    0.6    4.5   4.53   1.10    0.00    0.00
 2004 237    17    14    1.3    0.0    1.3   0.00   4.53    0.2    0.6    0.6    4.5   4.53   1.09    0.00    0.00
 2004 238    18    15    1.3    0.0    1.3   0.00   4.53    0.2    0.6    0.6    4.5   4.53   1.08    0.00    0.00
 2004 239    19    16    1.3    0.0    1.3   0.00   4.53    0.2    0.6    0.6    4.5   4.53   1.06    0.00    0.00
 2004 240    20    17    1.3    0.0    1.3   0.00   4.53    0.2    0.6    0.6    4.5   4.53   1.03    0.00    0.00
 2004 241    21    18    1.3    0.0    1.3   0.00   4.47    0.2    0.6    0.6    4.5   4.47   1.11    0.00    0.00
 2004 242    22    19    1.2    0.0    1.2   0.00   4.45    0.2    0.6    0.6    4.5   4.45   1.12    0.00    0.00
 2004 243    23    20    1.2    0.0    1.2   0.00   4.43    0.2    0.6    0.6    4.4   4.43   1.15    0.00    0.00
 2004 244    24    21    1.2    0.0    1.2   0.00   4.40    0.2    0.6    0.6    4.4   4.40   1.17    0.00    0.00
 2004 245    25    22    1.2    0.0    1.2   0.00   4.37    0.3    0.6    0.6    4.4   4.37   1.18    0.00    0.01
 2004 246    26    23    1.2    0.0    1.2   0.00   4.37    0.3    0.6    0.6    4.4   4.37   1.11    0.00    0.01
 2004 247    27    24    1.2    0.0    1.2   0.00   3.97    0.3    0.7    0.6    4.0   3.97   1.15    0.00    0.01
[...]
 2010 016   161   158   96.6   64.5   32.2   1.00   0.60  140.3   15.6   16.6    0.6   0.60   0.86    0.00   15.38
 2010 017   162   159   97.3   66.0   31.3   0.99   0.59  141.2   15.3   16.0    0.6   0.59   0.87    0.00   15.60
 2010 018   163   160   98.0   67.4   30.6   0.98   0.59  142.1   15.2   15.3    0.6   0.59   0.88    0.00   15.82
 2010 019   164   161   98.6   68.8   29.8   0.97   0.58  142.8   15.2   14.6    0.6   0.58   0.88    0.00   16.03
 2010 020   165   162   99.3   70.1   29.2   0.96   0.58  143.6   15.0   14.2    0.6   0.58   0.89    0.00   16.25
 2010 021   166   163  100.2   71.4   28.8   0.96   0.57  144.7   15.0   13.8    0.6   0.57   0.90    0.00   16.47
 2010 022   167   164  100.2   71.4   28.8   0.96   0.57  145.8   15.0   13.8    0.6   0.57   0.90    0.00   16.47
 2010 023   168   165  100.2   71.4   28.8   0.96   0.57  146.9   15.0   13.8    0.6   0.57   0.90    0.00   16.47
 2010 024   169   166  100.2   71.4   28.8   0.96   0.57  148.0   15.0   13.8    0.6   0.57   0.90    0.00   16.47

*DSSAT Cropping System Model Ver. 4.0.2.000               Aug 11, 2016; 14:49:51

*RUN  11        : UYMZ                    
 MODEL          : MZCER040 - Maize           
 EXPERIMENT     : UYMZ0136 MZ    late to create DSS                             
 TREATMENT  1   : UYMZ                    

@YEAR DOY   DAS   DAP   CNAD   GNAD   VNAD   GN%D   VN%D   NUPC   LNAD   SNAD   LN%D   SN%D   RN%D   SNN0C   SNN1C
 2010 223     3     0    0.0    0.0    0.0   0.00   0.00    0.0    0.0    0.0    0.0   0.00   0.00    0.00    0.00
 2010 224     4     1    0.0    0.0    0.0   0.00   0.00    0.0    0.0    0.0    0.0   0.00   0.00    0.00    0.00
 2010 225     5     2    0.0    0.0    0.0   0.00   0.00    0.0    0.0    0.0    0.0   0.00   0.00    0.00    0.00
 2010 226     6     3    0.0    0.0    0.0   0.00   0.00    0.0    0.0    0.0    0.0   0.00   0.00    0.00    0.00
 2010 227     7     4    0.0    0.0    0.0   0.00   0.00    0.0    0.0    0.0    0.0   0.00   0.00    0.00    0.00
 2010 228     8     5    0.0    0.0    0.0   0.00   0.00    0.0    0.0    0.0    0.0   0.00   0.00    0.00    0.00
 2010 229     9     6    0.0    0.0    0.0   0.00   0.00    0.0    0.0    0.0    0.0   0.00   0.00    0.00    0.00
 2010 230    10     7    0.0    0.0    0.0   0.00   0.00    0.0    0.0    0.0    0.0   0.00   0.00    0.00    0.00
 2010 231    11     8    0.0    0.0    0.0   0.00   0.00    0.0    0.0    0.0    0.0   0.00   0.00    0.00    0.00
 2010 232    12     9    0.0    0.0    0.0   0.00   0.00    0.0    0.0    0.0    0.0   0.00   0.00    0.00    0.00
 2010 233    13    10    0.0    0.0    0.0   0.00   0.00    0.0    0.0    0.0    0.0   0.00   0.00    0.00    0.00
 2010 234    14    11    0.0    0.0    0.0   0.00   0.00    0.0    0.0    0.0    0.0   0.00   0.00    0.00    0.00
 2010 235    15    12    1.2    0.0    1.2   0.00   4.40    0.0    0.6    0.6    4.4   4.40   0.00    0.00    0.00
 2010 236    16    13    1.3    0.0    1.3   0.00   4.55    0.2    0.6    0.6    4.5   4.55   1.09    0.00    0.00
 2010 237    17    14    1.3    0.0    1.3   0.00   4.55    0.2    0.6    0.6    4.5   4.55   1.09    0.00    0.00
 2010 238    18    15    1.3    0.0    1.3   0.00   4.55    0.2    0.6    0.6    4.5   4.55   1.07    0.00    0.00
 2010 239    19    16    1.3    0.0    1.3   0.00   4.55    0.2    0.6    0.6    4.5   4.55   1.04    0.00    0.00
 2010 240    20    17    1.2    0.0    1.2   0.00   4.46    0.2    0.6    0.6    4.5   4.46   1.13    0.00    0.00
 2010 241    21    18    1.2    0.0    1.2   0.00   4.45    0.2    0.6    0.6    4.4   4.45   1.13    0.00    0.00
 2010 242    22    19    1.2    0.0    1.2   0.00   4.44    0.2    0.6    0.6    4.4   4.44   1.14    0.00    0.00
 2010 243    23    20    1.2    0.0    1.2   0.00   4.41    0.2    0.6    0.6    4.4   4.41   1.16    0.00    0.00
 2010 244    24    21    1.2    0.0    1.2   0.00   4.41    0.2    0.6    0.6    4.4   4.41   1.10    0.00    0.00
 2010 245    25    22    1.2    0.0    1.2   0.00   4.38    0.2    0.6    0.6    4.4   4.38   1.14    0.00    0.00
 2010 246    26    23    1.2    0.0    1.2   0.00   4.36    0.2    0.6    0.6    4.4   4.36   1.15    0.00    0.01
 2010 247    27    24    1.2    0.0    1.2   0.00   4.36    0.3    0.6    0.6    4.4   4.36   1.22    0.00    0.01
 2010 248    28    25    1.2    0.0    1.2   0.00   4.34    0.4    0.6    0.6    4.3   4.34   1.31    0.00    0.01
 2010 249    29    26    1.2    0.0    1.2   0.00   4.12    0.4    0.6    0.6    4.1   4.12   1.26    0.00    0.01
 2010 250    30    27    1.3    0.0    1.3   0.00   3.85    0.6    0.7    0.5    3.8   3.85   1.24    0.00    0.01
 2010 251    31    28    1.4    0.0    1.4   0.00   3.72    0.8    0.9    0.5    3.7   3.72   1.20    0.00    0.02
 2010 252    32    29    1.6    0.0    1.6   0.00   3.59    1.1    1.1    0.5    3.6   3.59   1.21    0.00    0.02
 2010 253    33    30    1.9    0.0    1.9   0.00   3.47    1.5    1.4    0.5    3.5   3.47   1.21    0.00    0.02
 2010 254    34    31    2.3    0.0    2.3   0.00   3.75    2.0    1.8    0.5    3.7   3.75   1.17    0.00    0.03
 2010 255    35    32    2.6    0.0    2.6   0.00   4.14    2.3    2.0    0.6    4.1   4.14   1.21    0.00    0.03
 2010 256    36    33    2.7    0.0    2.7   0.00   4.07    2.4    2.1    0.6    4.1   4.07   1.15    0.00    0.03
 2010 257    37    34    2.7    0.0    2.7   0.00   4.03    2.7    2.2    0.6    4.0   4.03   1.30    0.00    0.04
 2010 258    38    35    2.8    0.0    2.8   0.00   3.83    3.0    2.3    0.5    3.8   3.83   1.25    0.00    0.05
 2010 259    39    36    3.1    0.0    3.1   0.00   3.65    3.5    2.6    0.5    3.6   3.65   1.24    0.00    0.05
 2010 260    40    37    3.5    0.0    3.5   0.00   3.79    4.2    3.0    0.5    3.8   3.79   1.25    0.00    0.06
 2010 261    41    38    3.8    0.0    3.8   0.00   3.94    4.9    3.3    0.6    3.9   3.94   1.30    0.00    0.07
 2010 262    42    39    4.0    0.0    4.0   0.00   3.71    5.2    3.5    0.5    3.7   3.71   1.21    0.00    0.08
 2010 263    43    40    4.4    0.0    4.4   0.00   3.59    5.8    3.9    0.5    3.6   3.59   1.17    0.00    0.09
 2010 264    44    41    5.0    0.0    5.0   0.00   3.52    6.4    4.5    0.5    3.5   3.52   1.13    0.00    0.11
 2010 265    45    42    5.7    0.0    5.7   0.00   3.44    7.4    5.3    0.5    3.4   3.44   1.15    0.00    0.12
 2010 266    46    43    6.7    0.0    6.7   0.00   3.68    8.3    6.2    0.5    3.7   3.68   1.09    0.00    0.13
 2010 267    47    44    7.3    0.0    7.3   0.00   3.73    9.8    6.8    0.5    3.7   3.73   1.21    0.00    0.15
 2010 268    48    45    7.9    0.0    7.9   0.00   3.88   10.7    7.3    0.5    3.9   3.88   1.23    0.00    0.17
 2010 269    49    46    8.1    0.0    8.1   0.00   3.80   10.7    7.6    0.5    3.8   3.80   1.13    0.00    0.19
 2010 270    50    47    8.5    0.0    8.5   0.00   3.60   10.9    8.0    0.5    3.6   3.60   1.08    0.00    0.21
 2010 271    51    48    9.3    0.0    9.3   0.00   3.46   11.9    8.8    0.5    3.5   3.46   1.09    0.00    0.22
 2010 272    52    49   10.6    0.0   10.6   0.00   3.68   13.2   10.1    0.5    3.7   3.68   1.08    0.00    0.24
 2010 273    53    50   11.3    0.0   11.3   0.00   3.60   14.5   10.8    0.5    3.6   3.60   1.16    0.00    0.26
 2010 274    54    51   12.2    0.0   12.2   0.00   3.73   15.9   11.7    0.5    3.7   3.73   1.18    0.00    0.28
 2010 275    55    52   12.8    0.0   12.8   0.00   3.95   17.3   12.2    0.6    3.9   3.95   1.22    0.00    0.31
 2010 276    56    53   12.6    0.0   12.6   0.00   3.69   17.4   12.1    0.5    3.7   3.69   1.17    0.00    0.34
 2010 277    57    54   13.1    0.0   13.1   0.00   3.52   18.2   12.6    0.5    3.5   3.52   1.14    0.00    0.37
 2010 278    58    55   15.2    0.0   15.2   0.00   3.78   20.8   14.7    0.5    3.8   3.78   1.14    0.00    0.40
 2010 279    59    56   16.5    0.0   16.5   0.00   3.68   22.3   16.0    0.5    3.7   3.68   1.13    0.00    0.43
 2010 280    60    57   17.3    0.0   17.3   0.00   3.58   22.9   16.8    0.5    3.6   3.58   1.08    0.00    0.47
 2010 281    61    58   18.6    0.0   18.6   0.00   3.55   25.2   18.1    0.5    3.6   3.55   1.15    0.00    0.50
 2010 282    62    59   19.8    0.0   19.8   0.00   3.53   26.8   19.3    0.5    3.5   3.53   1.13    0.00    0.54
 2010 283    63    60   20.8    0.0   20.8   0.00   3.51   29.0   20.2    0.5    3.5   3.51   1.18    0.00    0.58
 2010 284    64    61   21.8    0.0   21.8   0.00   3.49   30.8   21.2    0.6    3.5   3.49   1.17    0.00    0.63
 2010 285    65    62   23.4    0.0   23.4   0.00   3.46   33.4   22.8    0.6    3.5   3.46   1.17    0.00    0.68
 2010 286    66    63   25.6    0.0   25.6   0.00   3.43   36.2   24.9    0.7    3.4   3.43   1.14    0.00    0.73
 2010 287    67    64   28.1    0.0   28.1   0.00   3.40   37.9   27.2    0.9    3.4   3.40   1.07    0.00    0.79
 2010 288    68    65   29.4    0.0   29.4   0.00   3.38   40.5   28.4    1.0    3.4   3.38   1.13    0.00    0.85
 2010 289    69    66   31.2    0.0   31.2   0.00   3.36   41.7   30.0    1.2    3.4   3.36   1.07    0.00    0.91
 2010 290    70    67   32.5    0.0   32.5   0.00   3.34   45.0   31.2    1.3    3.3   3.34   1.16    0.00    0.97
 2010 291    71    68   34.2    0.0   34.2   0.00   3.32   47.7   32.8    1.5    3.3   3.32   1.15    0.00    1.04
 2010 292    72    69   36.1    0.0   36.1   0.00   3.30   50.6   34.4    1.7    3.3   3.30   1.15    0.00    1.11
 2010 293    73    70   38.9    0.0   38.9   0.00   3.27   54.3   36.8    2.1    3.3   3.27   1.14    0.00    1.19
 2010 294    74    71   42.2    0.0   42.2   0.00   3.24   58.4   39.5    2.7    3.2   3.24   1.13    0.00    1.27
 2010 295    75    72   45.7    0.0   45.7   0.00   3.20   62.0   42.3    3.4    3.2   3.20   1.10    0.00    1.36
 2010 296    76    73   48.0    0.0   48.0   0.00   3.18   66.3   44.0    3.9    3.2   3.18   1.15    0.00    1.44
 2010 297    77    74   50.4    0.0   50.4   0.00   3.16   68.9   45.9    4.5    3.2   3.16   1.11    0.00    1.54
 2010 298    78    75   53.1    0.0   53.1   0.00   3.13   73.0   47.8    5.3    3.1   3.13   1.13    0.00    1.64
 2010 299    79    76   55.1    0.0   55.1   0.00   3.11   77.0   49.3    5.8    3.1   3.11   1.15    0.00    1.74
 2010 300    80    77   58.2    0.0   58.2   0.00   3.08   80.5   51.4    6.8    3.1   3.08   1.12    0.00    1.86
 2010 301    81    78   61.6    0.0   61.6   0.00   3.05   85.6   53.7    7.9    3.0   3.05   1.13    0.00    1.97
 2010 302    82    79   64.5    0.0   64.5   0.00   3.03   87.4   55.6    8.9    3.0   3.03   1.08    0.00    2.10
 2010 303    83    80   66.6    0.0   66.6   0.00   3.00   92.5   56.9    9.8    3.0   3.00   1.12    0.00    2.22
 2010 304    84    81   69.2    0.0   69.2   0.00   2.95   96.7   58.3   10.9    3.0   2.95   1.12    0.00    2.35
 2010 305    85    82   71.6    0.0   71.6   0.00   2.88  100.1   59.4   12.2    2.9   2.88   1.09    0.00    2.49
 2010 306    86    83   73.6    0.0   73.6   0.00   2.79  102.9   60.2   13.4    2.8   2.79   1.07    0.00    2.64
 2010 307    87    84   75.5    0.0   75.5   0.00   2.66  105.3   60.4   15.0    2.7   2.66   1.04    0.00    2.79
 2010 308    88    85   77.3    0.0   77.3   0.00   2.51  107.4   60.4   17.0    2.5   2.51   1.04    0.00    2.95
 2010 309    89    86   78.7    0.0   78.7   0.00   2.40  109.1   60.3   18.5    2.4   2.40   1.01    0.00    3.10
 2010 310    90    87   80.1    0.0   80.1   0.00   2.32  110.8   60.3   19.8    2.3   2.32   0.98    0.00    3.26
 2010 311    91    88   81.2    0.0   81.2   0.00   2.18  112.3   59.6   21.7    2.2   2.18   0.96    0.00    3.42
 2010 312    92    89   82.4    0.0   82.4   0.00   1.98  113.6   58.7   23.7    2.0   1.98   0.96    0.00    3.58
 2010 313    93    90   83.4    0.0   83.4   0.00   1.96  114.7   59.0   24.4    2.0   1.96   0.96    0.00    3.74
 2010 314    94    91   84.2    0.0   84.2   0.00   1.91  115.7   58.9   25.3    1.9   1.91   0.92    0.00    3.90
 2010 315    95    92   85.1    0.0   85.1   0.00   1.88  116.8   59.0   26.2    1.9   1.88   0.89    0.00    4.06
 2010 316    96    93   85.8    0.0   85.8   0.00   1.84  117.6   58.7   27.1    1.8   1.84   0.86    0.00    4.22
 2010 317    97    94   86.3    0.0   86.3   0.00   1.79  118.3   58.2   28.0    1.8   1.79   0.83    0.00    4.39
 2010 318    98    95   86.7    0.0   86.7   0.00   1.73  118.8   57.6   29.1    1.7   1.73   0.81    0.00    4.55
 2010 319    99    96   87.1    0.0   87.1   0.00   1.67  119.4   56.8   30.3    1.7   1.67   0.81    0.00    4.71
 2010 320   100    97   87.6    0.0   87.6   0.00   1.62  119.9   56.1   31.5    1.6   1.62   0.79    0.00    4.88
 2010 321   101    98   88.0    0.0   88.0   0.00   1.58  120.5   55.4   32.6    1.6   1.58   0.78    0.00    5.05
 2010 322   102    99   88.4    0.0   88.4   0.00   1.54  121.0   54.8   33.6    1.5   1.54   0.75    0.00    5.21
 2010 323   103   100   88.8    0.0   88.8   0.00   1.50  121.5   54.2   34.5    1.5   1.50   0.76    0.00    5.38
 2010 324   104   101   89.3    0.0   89.3   0.00   1.46  122.1   53.5   35.8    1.5   1.46   0.75    0.00    5.54
 2010 325   105   102   90.7    0.0   90.7   0.00   1.42  123.9   53.1   37.6    1.4   1.42   0.75    0.00    5.71
 2010 326   106   103   92.3    0.0   92.3   0.00   1.40  125.8   53.1   39.1    1.4   1.40   0.75    0.00    5.88
 2010 327   107   104   93.7    0.0   93.7   0.00   1.38  127.5   53.1   40.6    1.4   1.38   0.75    0.00    6.05
 2010 328   108   105   95.0    0.0   95.0   0.00   1.36  129.1   52.9   42.1    1.4   1.36   0.76    0.00    6.22
 2010 329   109   106   96.2    0.0   96.2   0.00   1.34  130.6   52.9   43.3    1.3   1.34   0.74    0.00    6.40
 2010 330   110   107   97.3    0.0   97.3   0.00   1.32  132.0   52.6   44.6    1.3   1.32   0.73    0.00    6.57
 2010 331   111   108   98.2    0.0   98.2   0.00   1.29  133.1   52.2   45.9    1.3   1.29   0.72    0.00    6.75
 2010 332   112   109   99.2    0.0   99.2   0.00   1.28  134.4   52.3   46.9    1.3   1.28   0.72    0.00    6.93
 2010 333   113   110  100.1    0.0  100.1   0.00   1.27  135.5   52.4   47.7    1.3   1.27   0.72    0.00    7.11
 2010 334   114   111  101.1    0.0  101.1   0.00   1.26  136.8   52.4   48.7    1.3   1.26   0.70    0.00    7.29
 2010 335   115   112  101.9    0.0  101.9   0.00   1.38  137.8   56.7   45.1    1.4   1.38   0.69    0.00    7.47
 2010 336   116   113  102.6    0.0  102.6   0.00   1.39  138.8   56.3   46.3    1.4   1.39   0.68    0.00    7.65
 2010 337   117   114  103.3    0.0  103.3   0.00   1.39  139.7   55.8   47.4    1.4   1.39   0.68    0.00    7.83
 2010 338   118   115  103.9    0.0  103.9   0.00   1.40  140.6   55.4   48.5    1.4   1.40   0.67    0.00    8.02
 2010 339   119   116  104.7    0.0  104.7   0.00   1.41  141.8   54.9   49.8    1.4   1.41   0.67    0.00    8.20
 2010 340   120   117  105.3    0.0  105.3   0.00   1.41  142.8   54.4   50.9    1.4   1.41   0.66    0.00    8.39
 2010 341   121   118  106.2    0.0  106.2   0.00   1.43  144.2   54.0   52.2    1.4   1.43   0.65    0.00    8.58
 2010 342   122   119  106.9    0.0  106.9   0.00   1.44  145.3   53.5   53.4    1.4   1.44   0.66    0.00    8.77
 2010 343   123   120  107.7    0.0  107.7   0.00   1.44  146.6   52.7   55.0    1.4   1.44   0.66    0.00    8.96
 2010 344   124   121  108.3    0.0  108.3   0.00   1.45  147.6   52.0   56.3    1.4   1.45   0.66    0.00    9.16
 2010 345   125   122  108.9    0.0  108.9   0.00   1.46  148.8   51.2   57.7    1.5   1.46   0.67    0.00    9.36
 2010 346   126   123  109.5    0.0  109.5   0.00   1.47  149.8   50.6   58.8    1.5   1.47   0.68    0.00    9.56
 2010 347   127   124  109.9    0.0  109.9   0.00   1.48  150.6   49.9   59.9    1.5   1.48   0.66    0.00    9.76
 2010 348   128   125  110.4    2.5  107.9   1.40   1.46  151.7   49.0   58.9    1.5   1.46   0.67    0.00    9.97
 2010 349   129   126  110.9    6.2  104.7   1.39   1.41  152.5   47.6   57.1    1.4   1.41   0.67    0.00   10.18
 2010 350   130   127  111.4    9.8  101.6   1.38   1.37  153.5   46.2   55.4    1.4   1.37   0.67    0.00   10.39
 2010 351   131   128  111.9   13.4   98.5   1.38   1.33  154.3   44.8   53.7    1.3   1.33   0.67    0.00   10.60
 2010 352   132   129  112.4   17.0   95.5   1.37   1.29  155.2   43.4   52.1    1.3   1.29   0.68    0.00   10.81
 2010 353   133   130  112.9   19.9   93.0   1.36   1.27  156.0   42.7   50.3    1.3   1.27   0.69    0.00   11.02
 2010 354   134   131  113.3   23.3   89.9   1.35   1.23  156.7   41.3   48.6    1.2   1.23   0.70    0.00   11.24
 2010 355   135   132  113.8   26.7   87.1   1.34   1.18  157.7   39.6   47.5    1.2   1.18   0.70    0.00   11.46
 2010 356   136   133  114.3   30.1   84.2   1.33   1.14  158.4   38.3   45.9    1.1   1.14   0.71    0.00   11.68
 2010 357   137   134  114.8   33.3   81.4   1.32   1.10  159.2   37.0   44.4    1.1   1.10   0.71    0.00   11.90
 2010 358   138   135  115.2   36.5   78.6   1.31   1.08  159.9   36.4   42.3    1.1   1.08   0.72    0.00   12.12
 2010 359   139   136  115.5   39.7   75.9   1.30   1.03  160.5   34.7   41.2    1.0   1.03   0.72    0.00   12.34
 2010 360   140   137  116.0   42.8   73.3   1.29   0.99  161.3   33.3   40.0    1.0   0.99   0.72    0.00   12.57
 2010 361   141   138  116.6   45.8   70.8   1.28   0.96  162.3   32.2   38.6    1.0   0.96   0.72    0.00   12.80
 2010 362   142   139  117.3   48.7   68.6   1.27   0.93  163.3   31.2   37.4    0.9   0.93   0.73    0.00   13.02
 2010 363   143   140  117.8   51.5   66.3   1.26   0.90  164.1   30.1   36.2    0.9   0.90   0.73    0.00   13.25
 2010 364   144   141  118.4   54.2   64.3   1.24   0.87  165.1   29.2   35.1    0.9   0.87   0.74    0.00   13.48
 2010 365   145   142  118.9   56.9   62.1   1.23   0.84  165.9   28.2   33.9    0.8   0.84   0.74    0.00   13.72
 2011 001   146   143  119.5   59.5   60.0   1.22   0.81  166.8   27.3   32.7    0.8   0.81   0.75    0.00   13.95
 2011 002   147   144  120.0   62.0   57.9   1.20   0.79  167.5   26.6   31.3    0.8   0.79   0.76    0.00   14.19
 2011 003   148   145  120.5   64.3   56.2   1.19   0.78  168.3   26.3   29.9    0.8   0.78   0.77    0.00   14.42
 2011 004   149   146  120.9   66.7   54.2   1.18   0.76  169.0   25.7   28.5    0.8   0.76   0.77    0.00   14.66
 2011 005   150   147  121.4   69.1   52.2   1.17   0.75  169.7   25.2   27.1    0.7   0.75   0.78    0.00   14.90
 2011 006   151   148  121.7   71.5   50.2   1.16   0.72  170.2   24.1   26.1    0.7   0.72   0.79    0.00   15.14
 2011 007   152   149  122.3   74.0   48.3   1.15   0.69  171.1   23.1   25.2    0.7   0.69   0.79    0.00   15.38
 2011 008   153   150  122.8   76.3   46.6   1.14   0.67  171.9   22.4   24.1    0.7   0.67   0.80    0.00   15.63
 2011 009   154   151  123.4   78.5   45.0   1.13   0.65  172.8   21.8   23.1    0.6   0.65   0.81    0.00   15.87
 2011 010   155   152  124.0   80.6   43.4   1.11   0.64  173.6   21.6   21.9    0.6   0.64   0.82    0.00   16.11
 2011 011   156   153  124.4   82.6   41.8   1.10   0.63  174.2   21.3   20.5    0.6   0.63   0.83    0.00   16.36
 2011 012   157   154  125.0   84.6   40.5   1.09   0.62  175.1   21.0   19.5    0.6   0.62   0.83    0.00   16.61
 2011 013   158   155  125.4   86.5   38.8   1.08   0.61  175.7   20.4   18.4    0.6   0.61   0.84    0.00   16.86
 2011 014   159   156  126.0   88.5   37.6   1.07   0.59  176.6   19.9   17.6    0.6   0.59   0.85    0.00   17.10
 2011 015   160   157  126.8   90.4   36.4   1.06   0.58  177.5   19.5   16.9    0.6   0.58   0.86    0.00   17.35
 2011 016   161   158  126.8   90.4   36.4   1.06   0.58  178.3   19.5   16.9    0.6   0.58   0.86    0.00   17.35
 2011 017   162   159  126.8   90.4   36.4   1.06   0.58  179.1   19.5   16.9    0.6   0.58   0.86    0.00   17.35
 2011 018   163   160  126.8   90.4   36.4   1.06   0.58  179.9   19.5   16.9    0.6   0.58   0.86    0.00   17.35
