*GROWTH ASPECTS OUTPUT FILE

*DSSAT Cropping System Model Ver. 4.0.2.000               Aug 19, 2016; 14:33:09

*RUN   1        : UYMZ                    
 MODEL          : MZCER040 - Maize           
 EXPERIMENT     : UYMZ0218 MZ    late to create DSS                             
 TREATMENT  1   : UYMZ                    

@YEAR DOY   DAS   DAP   L#SD   GSTD   LAID   LWAD   SWAD   GWAD   RWAD   CWAD   G#AD   GWGD   HIAD   PWAD   P#AD   WSPD   WSGD   NSTD   EWSD   LN%D   SH%D   HIPD   PWDD   PWTD     SLAD   CHTD   CWID   RDPD   RL1D   RL2D   RL3D   RL4D   RL5D   RL6D   RL7D   RL8D   RL9D   RL10   CDAD   LDAD   SDAD   SNW0C   SNW1C
 2000 231     3     0    0.0      0   0.00      0      0      0      0      0      0    0.0  0.000      0      0  0.000  0.000  0.000  0.000   0.00   0.00   0.00      0      0      0.0   0.00   0.00   0.03   0.00   0.00   0.00   0.00   0.00   0.00   0.00   0.00   0.00   0.00      0      0      0       0       0
 2000 232     4     1    0.0      0   0.00      0      0      0      0      0      0    0.0  0.000      0      0  0.000  0.000  0.000  0.000   0.00   0.00   0.00      0      0      0.0   0.00   0.00   0.04   0.00   0.00   0.00   0.00   0.00   0.00   0.00   0.00   0.00   0.00      0      0      0       0       0
 2000 233     5     2    0.0      0   0.00      0      0      0      0      0      0    0.0  0.000      0      0  0.000  0.000  0.000  0.000   0.00   0.00   0.00      0      0      0.0   0.00   0.00   0.05   0.00   0.00   0.00   0.00   0.00   0.00   0.00   0.00   0.00   0.00      0      0      0       0       0
 2000 234     6     3    0.0      0   0.00      0      0      0      0      0      0    0.0  0.000      0      0  0.000  0.000  0.000  0.000   0.00   0.00   0.00      0      0      0.0   0.00   0.00   0.07   0.00   0.00   0.00   0.00   0.00   0.00   0.00   0.00   0.00   0.00      0      0      0       0       0
 2000 235     7     4    0.0      0   0.00      0      0      0      0      0      0    0.0  0.000      0      0  0.000  0.000  0.000  0.000   0.00   0.00   0.00      0      0      0.0   0.00   0.00   0.09   0.00   0.00   0.00   0.00   0.00   0.00   0.00   0.00   0.00   0.00      0      0      0       0       0
 2000 236     8     5    0.0      0   0.00      0      0      0      0      0      0    0.0  0.000      0      0  0.000  0.000  0.000  0.000   0.00   0.00   0.00      0      0      0.0   0.00   0.00   0.11   0.00   0.00   0.00   0.00   0.00   0.00   0.00   0.00   0.00   0.00      0      0      0       0       0
 2000 237     9     6    0.0      0   0.00      0      0      0      0      0      0    0.0  0.000      0      0  0.000  0.000  0.000  0.000   0.00   0.00   0.00      0      0      0.0   0.00   0.00   0.12   0.00   0.00   0.00   0.00   0.00   0.00   0.00   0.00   0.00   0.00      0      0      0       0       0
 2000 238    10     7    0.0      0   0.00      0      0      0      0      0      0    0.0  0.000      0      0  0.000  0.000  0.000  0.000   0.00   0.00   0.00      0      0      0.0   0.00   0.00   0.13   0.00   0.00   0.00   0.00   0.00   0.00   0.00   0.00   0.00   0.00      0      0      0       0       0
 2000 239    11     8    1.0      1   0.00     14     14      0     14     28      0    0.0  0.000      0      0  0.000  0.000  0.012  0.000   4.40   0.00   0.00      0      0     10.4   0.00   0.00   0.13   0.28   0.11   0.00   0.00   0.00   0.00   0.00   0.00   0.00   0.00      0      0      0       0       0
 2000 240    12     9    1.0      1   0.00     14     14      0     14     28      0    0.0  0.000      0      0  0.000  0.000  0.018  0.000   4.55   0.00   0.00      0      0     15.4   0.00   0.00   0.14   0.28   0.11   0.00   0.00   0.00   0.00   0.00   0.00   0.00   0.00      0      0      0       0       0
 2000 241    13    10    1.0      1   0.00     14     14      0     14     28      0    0.0  0.000      0      0  0.000  0.000  0.000  0.000   4.55   0.00   0.00      0      0     13.7   0.00   0.00   0.14   0.28   0.11   0.00   0.00   0.00   0.00   0.00   0.00   0.00   0.00      0      0      0       0       0
 2000 242    14    11    1.0      1   0.00     14     14      0     14     28      0    0.0  0.000      0      0  0.000  0.000  0.000  0.000   4.55   0.00   0.00      0      0     15.5   0.00   0.00   0.14   0.28   0.12   0.00   0.00   0.00   0.00   0.00   0.00   0.00   0.00      0      0      0       0       0
 2000 243    15    12    2.0      1   0.00     14     14      0     15     28      0    0.0  0.000      0      0  0.000  0.000  0.000  0.000   4.55   0.00   0.00      0      0     22.6   0.00   0.00   0.15   0.28   0.12   0.00   0.00   0.00   0.00   0.00   0.00   0.00   0.00      0      0      0       0       0
 2000 244    16    13    2.0      1   0.00     14     14      0     15     28      0    0.0  0.000      0      0  0.000  0.000  0.000  0.000   4.55   0.00   0.00      0      0     26.1   0.00   0.00   0.15   0.28   0.12   0.00   0.00   0.00   0.00   0.00   0.00   0.00   0.00      0      0      0       0       0
 2000 245    17    14    2.0      1   0.00     14     14      0     15     28      0    0.0  0.000      0      0  0.000  0.000  0.000  0.000   4.52   0.00   0.00      0      0     15.0   0.00   0.00   0.15   0.28   0.12   0.00   0.00   0.00   0.00   0.00   0.00   0.00   0.00      0      0      0       0       0
 2000 246    18    15    2.0      1   0.00     14     14      0     15     28      0    0.0  0.000      0      0  0.000  0.000  0.000  0.000   4.52   0.00   0.00      0      0     10.0   0.00   0.00   0.15   0.28   0.13   0.00   0.00   0.00   0.00   0.00   0.00   0.00   0.00      0      0      0       0       0
 2000 247    19    16    2.0      1   0.00     14     14      0     15     28      0    0.0  0.000      0      0  0.000  0.000  0.000  0.000   4.52   0.00   0.00      0      0     10.1   0.00   0.00   0.16   0.28   0.13   0.00   0.00   0.00   0.00   0.00   0.00   0.00   0.00      0      0      0       0       0
 2000 248    20    17    2.0      1   0.00     14     14      0     15     28      0    0.0  0.000      0      0  0.000  0.000  0.000  0.000   4.52   0.00   0.00      0      0     18.3   0.00   0.00   0.16   0.28   0.13   0.00   0.00   0.00   0.00   0.00   0.00   0.00   0.00      0      0      0       0       0
 2000 249    21    18    2.0      1   0.00     14     14      0     16     28      0    0.0  0.000      0      0  0.000  0.000  0.000  0.000   4.52   0.00   0.00      0      0     19.9   0.00   0.00   0.17   0.28   0.13   0.00   0.00   0.00   0.00   0.00   0.00   0.00   0.00      0      0      0       0       0
 2000 250    22    19    2.0      1   0.00     14     14      0     16     28      0    0.0  0.000      0      0  0.000  0.000  0.000  0.000   4.52   0.00   0.00      0      0     29.6   0.00   0.00   0.17   0.28   0.14   0.00   0.00   0.00   0.00   0.00   0.00   0.00   0.00      0      0      0       0       0
 2000 251    23    20    3.0      1   0.01     14     14      0     17     28      0    0.0  0.000      0      0  0.000  0.000  0.000  0.000   4.52   0.00   0.00      0      0     53.3   0.00   0.00   0.18   0.28   0.15   0.00   0.00   0.00   0.00   0.00   0.00   0.00   0.00      0      0      0       0       0
 2000 252    24    21    3.0      1   0.01     14     14      0     18     28      0    0.0  0.000      0      0  0.000  0.000  0.000  0.000   4.40   0.00   0.00      0      0     84.4   0.00   0.00   0.20   0.29   0.16   0.01   0.00   0.00   0.00   0.00   0.00   0.00   0.00      0      0      0       0       0
 2000 253    25    22    4.0      1   0.02     14     14      0     18     28      0    0.0  0.000      0      0  0.000  0.000  0.000  0.000   4.40   0.00   0.00      0      0    160.5   0.00   0.00   0.21   0.29   0.16   0.01   0.00   0.00   0.00   0.00   0.00   0.00   0.00      0      0      0       0       0
 2000 254    26    23    4.0      1   0.04     14     14      0     21     28      0    0.0  0.000      0      0  0.000  0.000  0.000  0.000   4.35   0.00   0.00      0      0    266.3   0.00   0.00   0.22   0.28   0.17   0.02   0.00   0.00   0.00   0.00   0.00   0.00   0.00      0      0      0       0       0
 2000 255    27    24    4.0      1   0.05     16     14      0     22     30      0    0.0  0.000      0      0  0.000  0.000  0.000  0.055   4.01   0.00   0.00      0      0    298.0   0.00   0.00   0.23   0.26   0.17   0.03   0.00   0.00   0.00   0.00   0.00   0.00   0.00      0      0      0       0       0
 2000 256    28    25    4.0      1   0.05     18     14      0     24     32      0    0.0  0.000      0      0  0.000  0.000  0.000  0.037   4.10   0.00   0.00      0      0    295.2   0.00   0.00   0.23   0.26   0.19   0.04   0.00   0.00   0.00   0.00   0.00   0.00   0.00      0      0      0       0       1
 2000 257    29    26    4.0      1   0.05     18     14      0     25     32      0    0.0  0.000      0      0  0.000  0.000  0.000  0.093   4.31   0.00   0.00      0      0    295.0   0.00   0.00   0.23   0.25   0.18   0.04   0.00   0.00   0.00   0.00   0.00   0.00   0.00      0      0      0       0       1
 2000 258    30    27    4.0      1   0.05     19     14      0     25     33      0    0.0  0.000      0      0  0.000  0.000  0.000  0.111   4.23   0.00   0.00      0      0    294.0   0.00   0.00   0.23   0.23   0.17   0.04   0.00   0.00   0.00   0.00   0.00   0.00   0.00      0      0      0       0       1
 2000 259    31    28    4.0      1   0.06     20     14      0     27     34      0    0.0  0.000      0      0  0.000  0.000  0.000  0.298   4.11   0.00   0.00      0      0    291.4   0.00   0.00   0.24   0.22   0.17   0.05   0.00   0.00   0.00   0.00   0.00   0.00   0.00      0      0      0       0       1
 2000 260    32    29    5.0      1   0.07     23     14      0     31     37      0    0.0  0.000      0      0  0.000  0.000  0.000  0.107   3.93   0.00   0.00      0      0    286.5   0.00   0.00   0.24   0.21   0.20   0.08   0.00   0.00   0.00   0.00   0.00   0.00   0.00      0      0      0       0       1
 2000 261    33    30    5.0      1   0.08     27     14      0     38     41      0    0.0  0.000      0      0  0.000  0.000  0.000  0.048   3.87   0.00   0.00      0      0    280.8   0.00   0.00   0.25   0.22   0.24   0.13   0.00   0.00   0.00   0.00   0.00   0.00   0.00      0      0      0       0       1
 2000 262    34    31    5.0      1   0.09     32     14      0     39     46      0    0.0  0.000      0      0  0.000  0.000  0.000  0.201   3.81   0.00   0.00      0      0    274.6   0.00   0.00   0.26   0.20   0.24   0.13   0.00   0.00   0.00   0.00   0.00   0.00   0.00      0      0      0       0       1
 2000 263    35    32    5.0      1   0.10     38     14      0     47     52      0    0.0  0.000      0      0  0.000  0.000  0.000  0.239   3.72   0.00   0.00      0      0    267.4   0.00   0.00   0.27   0.19   0.26   0.19   0.00   0.00   0.00   0.00   0.00   0.00   0.00      0      0      0       0       1
 2000 264    36    33    6.0      1   0.11     43     14      0     53     57      0    0.0  0.000      0      0  0.000  0.000  0.000  0.480   3.88   0.00   0.00      0      0    263.1   0.00   0.00   0.28   0.18   0.27   0.23   0.00   0.00   0.00   0.00   0.00   0.00   0.00      0      0      0       0       2
 2000 265    37    34    6.0      1   0.12     47     14      0     59     61      0    0.0  0.000      0      0  0.000  0.000  0.000  0.341   3.88   0.00   0.00      0      0    259.0   0.00   0.00   0.28   0.17   0.29   0.28   0.00   0.00   0.00   0.00   0.00   0.00   0.00      0      0      0       0       2
 2000 266    38    35    6.0      1   0.13     53     14      0     79     67      0    0.0  0.000      0      0  0.000  0.000  0.000  0.146   3.81   0.00   0.00      0      0    254.2   0.00   0.00   0.29   0.17   0.38   0.47   0.00   0.00   0.00   0.00   0.00   0.00   0.00      0      0      0       0       2
 2000 267    39    36    6.0      1   0.15     61     14      0     92     75      0    0.0  0.000      0      0  0.000  0.000  0.000  0.066   3.73   0.00   0.00      0      0    248.6   0.00   0.00   0.30   0.17   0.43   0.59   0.00   0.00   0.00   0.00   0.00   0.00   0.00      0      0      0       0       3
 2000 268    40    37    6.0      1   0.15     63     14      0    102     77      0    0.0  0.000      0      0  0.000  0.000  0.000  0.001   4.04   0.00   0.00      0      0    247.0   0.00   0.00   0.30   0.17   0.48   0.69   0.00   0.00   0.00   0.00   0.00   0.00   0.00      0      0      0       0       3
 2000 269    41    38    6.0      1   0.13     65     14      0    113     79      0    0.0  0.000      0      0  0.000  0.000  0.000  0.000   4.04   0.00   0.00      0      0    206.4   0.00   0.00   0.30   0.17   0.53   0.80   0.00   0.00   0.00   0.00   0.00   0.00   0.00      0      0      0       0       4
 2000 270    42    39    6.0      1   0.12     68     14      0    126     82      0    0.0  0.000      0      0  0.000  0.000  0.000  0.000   3.97   0.00   0.00      0      0    174.9   0.00   0.00   0.30   0.19   0.58   0.93   0.00   0.00   0.00   0.00   0.00   0.00   0.00      0      0      0       0       4
 2000 271    43    40    6.0      1   0.14     80     14      0    144     94      0    0.0  0.000      0      0  0.000  0.000  0.000  0.000   3.60   0.00   0.00      0      0    178.5   0.00   0.00   0.31   0.20   0.66   1.09   0.00   0.00   0.00   0.00   0.00   0.00   0.00      0      0      0       0       5
 2000 272    44    41    7.0      1   0.18     97     14      0    162    111      0    0.0  0.000      0      0  0.000  0.000  0.000  0.000   3.45   0.00   0.00      0      0    181.0   0.00   0.00   0.32   0.23   0.74   1.26   0.01   0.00   0.00   0.00   0.00   0.00   0.00      0      0      0       0       6
 2000 273    45    42    7.0      1   0.21    118     14      0    179    132      0    0.0  0.000      0      0  0.000  0.000  0.000  0.000   3.43   0.00   0.00      0      0    181.7   0.00   0.00   0.33   0.25   0.82   1.42   0.03   0.00   0.00   0.00   0.00   0.00   0.00      0      0      0       0       6
 2000 274    46    43    7.0      1   0.26    141     14      0    200    155      0    0.0  0.000      0      0  0.000  0.000  0.000  0.000   3.42   0.00   0.00      0      0    181.1   0.00   0.00   0.34   0.27   0.91   1.60   0.05   0.00   0.00   0.00   0.00   0.00   0.00      0      0      0       0       7
 2000 275    47    44    8.0      1   0.30    168     14      0    222    182      0    0.0  0.000      0      0  0.000  0.000  0.000  0.000   3.42   0.00   0.00      0      0    179.6   0.00   0.00   0.36   0.28   1.00   1.78   0.08   0.00   0.00   0.00   0.00   0.00   0.00      0      0      0       0       8
 2000 276    48    45    8.0      1   0.34    189     14      0    226    203      0    0.0  0.000      0      0  0.000  0.000  0.000  0.000   3.56   0.00   0.00      0      0    178.2   0.00   0.00   0.37   0.27   0.96   1.72   0.08   0.00   0.00   0.00   0.00   0.00   0.00      0      0      0       0       9
 2000 277    49    46    8.0      1   0.37    212     14      0    240    226      0    0.0  0.000      0      0  0.000  0.000  0.000  0.000   3.57   0.00   0.00      0      0    176.6   0.00   0.00   0.38   0.25   0.95   1.73   0.11   0.00   0.00   0.00   0.00   0.00   0.00      0      0      0       0      10
 2000 278    50    47    8.0      1   0.40    226     14      0    288    240      0    0.0  0.000      0      0  0.000  0.000  0.000  0.312   3.72   0.00   0.00      0      0    175.6   0.00   0.00   0.39   0.25   1.07   2.06   0.23   0.00   0.00   0.00   0.00   0.00   0.00      0      0      0       0      12
 2000 279    51    48    9.0      1   0.42    242     14      0    345    256      0    0.0  0.000      0      0  0.000  0.000  0.000  0.081   3.69   0.00   0.00      0      0    174.5   0.00   0.00   0.40   0.25   1.23   2.49   0.38   0.00   0.00   0.00   0.00   0.00   0.00      0      0      0       0      13
 2000 280    52    49    9.0      1   0.44    257     14      0    405    271      0    0.0  0.000      0      0  0.000  0.000  0.000  0.004   3.70   0.00   0.00      0      0    172.0   0.00   0.00   0.41   0.25   1.41   2.95   0.56   0.00   0.00   0.00   0.00   0.00   0.00      0      0      0       0      15
 2000 281    53    50    9.0      1   0.48    281     14      0    469    295      0    0.0  0.000      0      0  0.000  0.000  0.000  0.000   3.59   0.00   0.00      0      0    170.5   0.00   0.00   0.42   0.26   1.61   3.45   0.77   0.00   0.00   0.00   0.00   0.00   0.00      0      0      0       0      17
 2000 282    54    51    9.0      2   0.54    293     14      0    548    307      0    0.0  0.000      0      0  0.000  0.000  0.000  0.000   3.73   0.00   0.00      0      0    182.7   0.00   0.00   0.43   0.29   1.84   4.00   1.05   0.00   0.00   0.00   0.00   0.00   0.00      0      0      0       0      19
 2000 283    55    52    9.0      2   0.58    320     14      0    559    334      0    0.0  0.000      0      0  0.000  0.000  0.002  0.000   3.43   0.00   0.00      0      0    180.8   0.00   0.00   0.44   0.28   1.85   4.00   1.09   0.00   0.00   0.00   0.00   0.00   0.00      0      0      0       0      19
 2000 284    56    53    9.0      2   0.62    346     14      0    638    360      0    0.0  0.000      0      0  0.000  0.000  0.013  0.000   3.55   0.00   0.00      0      0    178.8   0.00   0.00   0.45   0.29   2.05   4.00   1.41   0.00   0.00   0.00   0.00   0.00   0.00      0      0      0       0      22
 2000 285    57    54   10.0      2   0.67    379     14      0    727    393      0    0.0  0.000      0      0  0.000  0.000  0.000  0.031   3.78   0.00   0.00      0      0    176.7   0.00   0.00   0.46   0.30   2.28   4.00   1.80   0.00   0.00   0.00   0.00   0.00   0.00      0      0      0       0      25
 2000 286    58    55   10.0      3   0.76    444     14      0    794    458      0    0.0  0.000      0      0  0.000  0.000  0.022  0.000   3.68   0.00   0.00      0      0    171.1   0.00   0.00   0.48   0.31   2.41   4.00   2.08   0.06   0.00   0.00   0.00   0.00   0.00      0      0      0       0      29
 2000 287    59    56   10.0      3   0.82    490     15      0    881    505      0    0.0  0.000      0      0  0.000  0.000  0.022  0.000   3.57   0.00   0.00      0      0    168.3   0.00   0.00   0.49   0.32   2.57   4.00   2.45   0.18   0.00   0.00   0.00   0.00   0.00      0      0      0       0      33
 2000 288    60    57   11.0      3   0.89    534     15      0    893    550      0    0.0  0.000      0      0  0.000  0.000  0.022  0.001   3.54   0.00   0.00      0      0    165.8   0.00   0.00   0.50   0.32   2.57   4.00   2.51   0.21   0.00   0.00   0.00   0.00   0.00      0      0      0       0      37
 2000 289    61    58   11.0      3   0.94    578     16      0    911    594      0    0.0  0.000      0      0  0.000  0.000  0.022  0.001   3.52   0.00   0.00      0      0    163.5   0.00   0.00   0.51   0.32   2.60   4.00   2.58   0.25   0.00   0.00   0.00   0.00   0.00      0      0      0       0      42
 2000 290    62    59   11.0      3   1.03    639     18      0    940    657      0    0.0  0.000      0      0  0.000  0.000  0.022  0.000   3.49   0.00   0.00      0      0    160.7   0.00   0.00   0.52   0.33   2.65   4.00   2.70   0.34   0.00   0.00   0.00   0.00   0.00      0      0      0       0      46
 2000 291    63    60   11.0      3   1.12    707     21      0    968    729      0    0.0  0.000      0      0  0.000  0.000  0.022  0.000   3.45   0.00   0.00      0      0    157.8   0.00   0.00   0.54   0.33   2.69   4.00   2.83   0.43   0.00   0.00   0.00   0.00   0.00      0      0      0       0      51
 2000 292    64    61   12.0      3   1.22    790     27      0    968    818      0    0.0  0.000      0      0  0.000  0.000  0.022  0.000   3.41   0.00   0.00      0      0    154.8   0.00   0.00   0.55   0.33   2.69   4.00   2.83   0.45   0.00   0.00   0.00   0.00   0.00      0      0      0       0      56
 2000 293    65    62   12.0      3   1.32    868     34      0   1009    902      0    0.0  0.000      0      0  0.000  0.000  0.022  0.000   3.38   0.00   0.00      0      0    152.2   0.00   0.00   0.57   0.34   2.74   4.00   3.01   0.64   0.00   0.00   0.00   0.00   0.00      0      0      0       0      61
 2000 294    66    63   12.0      3   1.43    956     44      0   1010   1000      0    0.0  0.000      0      0  0.000  0.000  0.022  0.000   3.34   0.00   0.00      0      0    149.6   0.00   0.00   0.58   0.34   2.73   4.00   3.02   0.66   0.00   0.00   0.00   0.00   0.00      0      0      0       0      66
 2000 295    67    64   13.0      3   1.56   1062     61      0   1092   1123      0    0.0  0.000      0      0  0.000  0.000  0.022  0.004   3.31   0.00   0.00      0      0    146.7   0.00   0.00   0.60   0.35   2.83   4.00   3.35   1.12   0.00   0.00   0.00   0.00   0.00      0      0      0       0      71
 2000 296    68    65   13.0      3   1.65   1140     75      0   1102   1215      0    0.0  0.000      0      0  0.000  0.000  0.022  0.085   3.27   0.00   0.00      0      0    144.7   0.00   0.00   0.61   0.33   2.66   3.76   3.19   1.16   0.00   0.00   0.00   0.00   0.00      0      0      0       0      76
 2000 297    69    66   13.0      3   1.73   1211     89      0   1118   1300      0    0.0  0.000      0      0  0.000  0.000  0.022  0.073   3.24   0.00   0.00      0      0    143.0   0.00   0.00   0.62   0.32   2.52   3.58   3.10   1.24   0.01   0.00   0.00   0.00   0.00      0      0      0       0      82
 2000 298    70    67   13.0      3   1.81   1280    106      0   1132   1386      0    0.0  0.000      0      0  0.000  0.000  0.022  0.227   3.21   0.00   0.00      0      0    141.4   0.00   0.00   0.63   0.32   2.44   3.46   3.06   1.33   0.03   0.00   0.00   0.00   0.00      0      0      0       0      87
 2000 299    71    68   14.0      3   1.86   1327    119      0   1207   1446      0    0.0  0.000      0      0  0.000  0.000  0.022  0.534   3.15   0.00   0.00      0      0    140.2   0.00   0.00   0.64   0.34   2.32   3.27   3.01   1.73   0.15   0.00   0.00   0.00   0.00      0      0      0       0      93
 2000 300    72    69   14.0      3   1.92   1379    136      0   1263   1516      0    0.0  0.000      0      0  0.000  0.000  0.022  0.551   3.14   0.00   0.00      0      0    139.0   0.00   0.00   0.66   0.35   2.20   3.09   2.88   1.94   0.28   0.00   0.00   0.00   0.00      0      0      0       0      99
 2000 301    73    70   14.0      3   2.00   1456    165      0   1431   1621      0    0.0  0.000      0      0  0.000  0.000  0.022  0.207   3.09   0.00   0.00      0      0    137.4   0.00   0.00   0.67   0.45   2.22   3.07   2.89   2.69   0.77   0.00   0.00   0.00   0.00      0      0      0       0     105
 2000 302    74    71   14.0      3   2.06   1514    188      0   1616   1702      0    0.0  0.000      0      0  0.000  0.000  0.022  0.049   3.09   0.00   0.00      0      0    136.3   0.00   0.00   0.68   0.60   2.31   3.14   2.88   3.40   1.39   0.00   0.00   0.00   0.00      0      0      0       0     112
 2000 303    75    72   15.0      3   2.10   1555    206      0   1799   1760      0    0.0  0.000      0      0  0.000  0.000  0.022  0.023   3.09   0.00   0.00      0      0    135.3   0.00   0.00   0.68   0.76   2.45   3.27   2.91   3.99   2.06   0.00   0.00   0.00   0.00      0      0      0       0     121
 2000 304    76    73   15.0      3   2.20   1645    248      0   1967   1893      0    0.0  0.000      0      0  0.000  0.000  0.022  0.010   3.00   0.00   0.00      0      0    133.8   0.00   0.00   0.70   0.95   2.62   3.43   2.96   4.00   2.74   0.00   0.00   0.00   0.00      0      0      0       0     130
 2000 305    77    74   15.0      3   2.31   1747    302      0   2112   2050      0    0.0  0.000      0      0  0.000  0.000  0.022  0.000   2.88   0.00   0.00      0      0    132.2   0.00   0.00   0.71   1.13   2.80   3.60   3.03   4.00   3.38   0.00   0.00   0.00   0.00      0      0      0       0     139
 2000 306    78    75   15.0      3   2.40   1829    351      0   2109   2180      0    0.0  0.000      0      0  0.000  0.000  0.022  0.000   2.84   0.00   0.00      0      0    130.9   0.00   0.00   0.72   1.13   2.79   3.59   3.02   3.98   3.40   0.00   0.00   0.00   0.00      0      0      0       0     150
 2000 307    79    76   16.0      3   2.49   1922    410      0   2206   2332      0    0.0  0.000      0      0  0.000  0.000  0.022  0.000   2.73   0.00   0.00      0      0    129.6   0.00   0.00   0.73   1.29   2.94   3.74   3.07   4.00   3.85   0.00   0.00   0.00   0.00      0      0      0       0     160
 2000 308    80    77   16.0      3   2.57   1998    463      0   2398   2461      0    0.0  0.000      0      0  0.000  0.000  0.023  0.010   2.63   0.00   0.00      0      0    128.5   0.00   0.00   0.74   1.64   3.28   4.00   3.21   4.00   4.00   0.00   0.00   0.00   0.00      0      0      0       0     171
 2000 309    81    78   16.0      3   2.64   2074    519      0   2489   2593      0    0.0  0.000      0      0  0.000  0.000  0.027  0.000   2.55   0.00   0.00      0      0    127.3   0.00   0.00   0.75   1.83   3.46   4.00   3.28   4.00   4.00   0.00   0.00   0.00   0.00      0      0      0       0     183
 2000 310    82    79   16.0      3   2.72   2158    586      0   2663   2744      0    0.0  0.000      0      0  0.000  0.000  0.030  0.000   2.45   0.00   0.00      0      0    126.1   0.00   0.00   0.76   2.23   3.86   4.00   3.44   4.00   4.00   0.00   0.00   0.00   0.00      0      0      0       0     196
 2000 311    83    80   17.0      3   2.82   2258    673      0   2793   2931      0    0.0  0.000      0      0  0.000  0.000  0.034  0.000   2.32   0.00   0.00      0      0    124.7   0.00   0.00   0.78   2.58   4.00   4.00   3.58   4.00   4.00   0.00   0.00   0.00   0.00      0      0      0       0     209
 2000 312    84    81   17.0      3   2.91   2359    769      0   2790   3128      0    0.0  0.000      0      0  0.000  0.000  0.039  0.000   2.21   0.00   0.00      0      0    123.3   0.00   0.00   0.79   2.60   4.00   4.00   3.57   3.99   4.00   0.00   0.00   0.00   0.00      0      0      0       0     223
 2000 313    85    82   17.0      3   3.02   2476    889      0   2804   3364      0    0.0  0.000      0      0  0.000  0.000  0.045  0.000   2.08   0.00   0.00      0      0    121.8   0.00   0.00   0.80   2.68   4.00   4.00   3.59   4.00   4.00   0.00   0.00   0.00   0.00      0      0      0       0     237
 2000 314    86    83   17.0      3   3.07   2545    965      0   2798   3510      0    0.0  0.000      0      0  0.000  0.000  0.053  0.000   2.01   0.00   0.00      0      0    120.5   0.00   0.00   0.81   2.69   4.00   4.00   3.59   3.99   3.99   0.00   0.00   0.00   0.00      0      0      0       0     251
 2000 315    87    84   18.0      3   3.14   2636   1074      0   2910   3710      0    0.0  0.000      0      0  0.000  0.000  0.063  0.000   1.93   0.00   0.00      0      0    119.0   0.00   0.00   0.83   3.18   4.00   4.00   3.79   4.00   4.00   0.00   0.00   0.00   0.00      0      0      0       0     265
 2000 316    88    85   18.0      3   3.21   2738   1205      0   2986   3943      0    0.0  0.000      0      0  0.000  0.000  0.068  0.000   1.83   0.00   0.00      0      0    117.4   0.00   0.00   0.84   3.52   4.00   4.00   3.92   4.00   4.00   0.00   0.00   0.00   0.00      0      0      0       0     280
 2000 317    89    86   18.0      3   3.38   2932   1374      0   2991   4306      0    0.0  0.000      0      0  0.000  0.000  0.075  0.000   1.68   0.00   0.00      0      0    115.3   0.00   0.00   0.85   3.58   4.00   4.00   3.93   4.00   4.00   0.00   0.00   0.00   0.00      0      0      0       0     295
 2000 318    90    87   19.0      3   3.44   3034   1492      0   3049   4526      0    0.0  0.000      0      0  0.000  0.000  0.087  0.000   1.62   0.00   0.00      0      0    113.5   0.00   0.00   0.87   3.84   4.00   4.00   4.00   4.00   4.00   0.00   0.00   0.00   0.00      0      0      0       0     310
 2000 319    91    88   19.0      3   3.44   3072   1540      0   3178   4612      0    0.0  0.000      0      0  0.000  0.000  0.109  0.000   1.60   0.00   0.00      0      0    111.8   0.00   0.00   0.87   4.00   4.00   4.00   4.00   4.00   4.00   0.00   0.00   0.00   0.00      0      0      0       0     325
 2000 320    92    89   19.0      3   3.41   3101   1580      0   3292   4682      0    0.0  0.000      0      0  0.000  0.000  0.121  0.000   1.59   0.00   0.00      0      0    110.0   0.00   0.00   0.87   4.00   4.00   4.00   4.00   4.00   4.00   0.00   0.00   0.00   0.00      0      0      0       0     341
 2000 321    93    90   19.0      3   3.41   3153   1657      0   3476   4811      0    0.0  0.000      0      0  0.000  0.000  0.123  0.000   1.55   0.00   0.00      0      0    108.2   0.00   0.00   0.88   4.00   4.00   4.00   4.00   4.00   4.00   0.00   0.00   0.00   0.00      0      0      0       0     357
 2000 322    94    91   19.0      3   3.42   3219   1767      0   3635   4986      0    0.0  0.000      0      0  0.000  0.000  0.122  0.000   1.51   0.00   0.00      0      0    106.3   0.00   0.00   0.89   4.00   4.00   4.00   4.00   4.00   4.00   0.00   0.00   0.00   0.00      0      0      0       0     375
 2000 323    95    92   20.0      3   3.44   3286   1893      0   3783   5179      0    0.0  0.000      0      0  0.000  0.000  0.126  0.000   1.46   0.00   0.00      0      0    104.5   0.00   0.00   0.90   4.00   4.00   4.00   4.00   4.00   4.00   0.00   0.00   0.00   0.00      0      0      0       0     393
 2000 324    96    93   20.0      3   3.45   3358   2040      0   3904   5398      0    0.0  0.000      0      0  0.000  0.000  0.131  0.000   1.41   0.00   0.00      0      0    102.7   0.00   0.00   0.92   4.00   4.00   4.00   4.00   4.00   4.00   0.41   0.00   0.00   0.00      0      0      0       0     412
 2000 325    97    94   20.0      3   3.43   3397   2127      0   4095   5525      0    0.0  0.000      0      0  0.000  0.000  0.139  0.000   1.41   0.00   0.00      0      0    100.9   0.00   0.00   0.92   4.00   4.00   4.00   4.00   4.00   4.00   1.22   0.00   0.00   0.00      0      0      0       0     431
 2000 326    98    95   20.0      3   3.41   3442   2231      0   4264   5674      0    0.0  0.000      0      0  0.000  0.000  0.142  0.000   1.40   0.00   0.00      0      0     99.0   0.00   0.00   0.93   4.00   4.00   4.00   4.00   4.00   4.00   2.05   0.00   0.00   0.00      0      0      0       0     452
 2000 327    99    96   21.0      3   3.41   3502   2380      0   4343   5882      0    0.0  0.000      0      0  0.000  0.000  0.138  0.000   1.37   0.00   0.00      0      0     97.3   0.00   0.00   0.95   4.00   4.00   4.00   4.00   4.00   4.00   2.55   0.00   0.00   0.00      0      0      0       0     473
 2000 328   100    97   21.0      3   3.42   3571   2561      0   4416   6132      0    0.0  0.000      0      0  0.000  0.000  0.134  0.000   1.34   0.00   0.00      0      0     95.7   0.00   0.00   0.96   4.00   4.00   4.00   4.00   4.00   4.00   3.05   0.00   0.00   0.00      0      0      0       0     495
 2000 329   101    98   21.0      3   3.39   3605   2658      0   4471   6263      0    0.0  0.000      0      0  0.000  0.000  0.138  0.011   1.33   0.00   0.00      0      0     94.1   0.00   0.00   0.97   4.00   4.00   4.00   4.00   4.00   4.00   3.45   0.00   0.00   0.00      0      0      0       0     517
 2000 330   102    99   22.0      3   3.36   3636   2744      0   4643   6379      0    0.0  0.000      0      0  0.000  0.000  0.144  0.000   1.32   0.00   0.00      0      0     92.4   0.00   0.00   0.98   4.00   4.00   4.00   4.00   4.00   4.00   4.00   0.00   0.00   0.00      0      0      0       0     539
 2000 331   103   100   22.0      3   3.34   3680   2874      0   4797   6554      0    0.0  0.000      0      0  0.000  0.000  0.143  0.000   1.30   0.00   0.00      0      0     90.8   0.00   0.00   0.99   4.00   4.00   4.00   4.00   4.00   4.00   4.00   0.00   0.00   0.00      0      0      0       0     562
 2000 332   104   101   22.0      3   3.33   3727   3015      0   4786   6743      0    0.0  0.000      0      0  0.000  0.000  0.142  0.000   1.28   0.00   0.00      0      0     89.3   0.00   0.00   1.00   4.00   4.00   4.00   3.99   3.99   3.99   4.00   0.00   0.00   0.00      0      0      0       0     586
 2000 333   105   102   22.0      3   3.30   3761   3116      0   4769   6878      0    0.0  0.000      0      0  0.000  0.000  0.144  0.000   1.27   0.00   0.00      0      0     87.7   0.00   0.00   1.01   3.99   3.99   3.99   3.98   3.97   3.97   4.00   0.00   0.00   0.00      0      0      0       0     610
 2000 334   106   103   22.0      3   3.27   3792   3207      0   4811   7000      0    0.0  0.000      0      0  0.000  0.000  0.148  0.000   1.26   0.00   0.00      0      0     86.1   0.00   0.00   1.02   4.00   4.00   4.00   4.00   4.00   3.99   4.00   0.00   0.00   0.00      0      0      0       0     634
 2000 335   107   104   22.0      3   3.23   3822   3295      0   4985   7117      0    0.0  0.000      0      0  0.000  0.000  0.150  0.000   1.25   0.00   0.00      0      0     84.6   0.00   0.00   1.03   4.00   4.00   4.00   4.00   4.00   4.00   4.00   0.00   0.00   0.00      0      0      0       0     658
 2000 336   108   105   22.0      3   3.20   3851   3382      0   5122   7233      0    0.0  0.000      0      0  0.000  0.000  0.151  0.000   1.24   0.00   0.00      0      0     83.1   0.00   0.00   1.04   4.00   4.00   4.00   4.00   4.00   4.00   4.00   0.00   0.00   0.00      0      0      0       0     683
 2000 337   109   106   22.0      3   3.18   3892   3501      0   5274   7393      0    0.0  0.000      0      0  0.000  0.000  0.151  0.000   1.22   0.00   0.00      0      0     81.7   0.00   0.00   1.05   4.00   4.00   4.00   4.00   4.00   4.00   4.00   0.00   0.00   0.00      0      0      0       0     709
 2000 338   110   107   22.0      3   3.16   3934   3626      0   5330   7561      0    0.0  0.000      0      0  0.000  0.000  0.151  0.000   1.20   0.00   0.00      0      0     80.3   0.00   0.00   1.06   4.00   4.00   4.00   4.00   4.00   4.00   4.00   0.00   0.00   0.00      0      0      0       0     735
 2000 339   111   108   22.0      4   3.10   3895   3059      0   5343   7655      0    0.0  0.000    701      0  0.000  0.000  0.154  0.000   1.32   0.00   0.09      0    701     79.5   0.00   0.00   1.07   4.00   4.00   4.00   4.00   4.00   4.00   4.00   0.00   0.00   0.00      0      0      0       0     762
 2000 340   112   109   22.0      4   3.04   3853   3095      0   5493   7738      0    0.0  0.000    791      0  0.000  0.000  0.156  0.000   1.33   0.00   0.10      0    791     78.8   0.00   0.00   1.08   4.00   4.00   4.00   4.00   4.00   4.00   4.00   0.00   0.00   0.00      0      0      0       0     788
 2000 341   113   110   22.0      4   2.99   3809   3151      0   5605   7889      0    0.0  0.000    930      0  0.000  0.000  0.120  0.000   1.33   0.00   0.12      0    930     78.5   0.00   0.00   1.09   4.00   4.00   4.00   4.00   4.00   4.00   4.00   0.00   0.00   0.00      0      0      0       0     816
 2000 342   114   111   22.0      4   2.95   3762   3220      0   5679   8086      0    0.0  0.000   1104      0  0.000  0.000  0.112  0.000   1.34   0.00   0.14      0   1104     78.4   0.00   0.00   1.10   4.00   4.00   4.00   4.00   4.00   4.00   4.00   0.18   0.00   0.00      0      0      0       0     844
 2000 343   115   112   22.0      4   2.91   3711   3298      0   5686   8306      0    0.0  0.000   1298      0  0.000  0.000  0.106  0.000   1.34   0.00   0.16      0   1298     78.4   0.00   0.00   1.11   4.00   4.00   4.00   4.00   4.00   4.00   4.00   0.27   0.00   0.00      0      0      0       0     872
 2000 344   116   113   22.0      4   2.88   3657   3380      0   5788   8539      0    0.0  0.000   1502      0  0.000  0.000  0.098  0.000   1.35   0.00   0.18      0   1502     78.6   0.00   0.00   1.13   4.00   4.00   4.00   4.00   4.00   4.00   4.00   0.67   0.00   0.00      0      0      0       0     901
 2000 345   117   114   22.0      4   2.84   3600   3450      0   5850   8729      0    0.0  0.000   1679      0  0.000  0.000  0.092  0.000   1.36   0.00   0.19      0   1679     78.9   0.00   0.00   1.14   4.00   4.00   4.00   4.00   4.00   4.00   4.00   0.98   0.00   0.00      0      0      0       0     930
 2000 346   118   115   22.0      4   2.81   3540   3530      0   5835   8948      0    0.0  0.000   1878      0  0.000  0.000  0.086  0.000   1.37   0.00   0.21      0   1878     79.4   0.00   0.00   1.15   4.00   4.00   4.00   3.99   3.99   3.99   3.99   1.03   0.00   0.00      0      0      0       0     959
 2000 347   119   116   22.0      4   2.78   3477   3610      0   5872   9165      0    0.0  0.000   2078      0  0.000  0.000  0.080  0.000   1.37   0.00   0.23      0   2078     80.0   0.00   0.00   1.16   4.00   4.00   4.00   4.00   4.00   4.00   4.00   1.29   0.00   0.00      0      0      0       0     988
 2000 348   120   117   22.0      4   2.76   3410   3706      0   5927   9434      0    0.0  0.000   2318      0  0.000  0.000  0.073  0.000   1.38   0.00   0.25      0   2318     80.9   0.00   0.00   1.17   4.00   4.00   4.00   4.00   4.00   4.00   4.00   1.63   0.00   0.00      0      0      0       0    1017
 2000 349   121   118   22.0      4   2.73   3339   3793      0   5947   9667      0    0.0  0.000   2535      0  0.000  0.000  0.067  0.000   1.38   0.00   0.26      0   2535     81.9   0.00   0.00   1.18   4.00   4.00   4.00   4.00   4.00   4.00   4.00   1.84   0.00   0.00      0      0      0       0    1047
 2000 350   122   119   22.0      5   2.69   3339   3793    260   5945   9927   3116    8.3  0.026   2795      7  0.000  0.000  0.122  0.082   1.34   9.30   0.28      0   2795     80.6   0.00   0.00   1.19   4.00   4.00   4.00   4.00   4.00   4.00   3.99   1.95   0.00   0.00      0      0      0       0    1077
 2000 351   123   120   22.0      5   2.65   3339   3793    360   6022  10027   3116   11.5  0.036   2895      7  0.000  0.000  0.135  0.031   1.33  12.43   0.29      0   2895     79.3   0.00   0.00   1.20   4.00   4.00   4.00   4.00   4.00   4.00   4.00   2.40   0.00   0.00      0      0      0       0    1107
 2000 352   124   121   22.0      5   2.60   3339   3793    500   6085  10168   3116   16.1  0.049   3036      7  0.000  0.000  0.134  0.000   1.32  16.48   0.30      0   3036     77.9   0.00   0.00   1.21   4.00   4.00   4.00   4.00   4.00   4.00   4.00   2.78   0.00   0.00      0      0      0       0    1137
 2000 353   125   122   22.0      5   2.56   3339   3793    709   6134  10377   3116   22.8  0.068   3245      7  0.000  0.000  0.133  0.000   1.29  21.86   0.31      0   3245     76.6   0.00   0.00   1.21   4.00   4.00   4.00   4.00   4.00   4.00   4.00   3.09   0.00   0.00      0      0      0       0    1167
 2000 354   126   123   22.0      5   2.52   3339   3793    874   6169  10541   3116   28.0  0.083   3409      7  0.000  0.000  0.137  0.000   1.27  25.63   0.32      0   3409     75.3   0.00   0.00   1.22   4.00   4.00   4.00   4.00   4.00   4.00   4.00   3.34   0.00   0.00      0      0      0       0    1198
 2000 355   127   124   22.0      5   2.47   3339   3793   1075   6207  10742   3116   34.5  0.100   3610      7  0.000  0.000  0.138  0.000   1.24  29.78   0.34      0   3610     74.0   0.00   0.00   1.23   4.00   4.00   4.00   4.00   4.00   4.00   4.00   3.59   0.00   0.00      0      0      0       0    1229
 2000 356   128   125   22.0      5   2.43   3339   3793   1228   6176  10895   3116   39.4  0.113   3763      7  0.000  0.000  0.143  0.000   1.22  32.63   0.35      0   3763     72.7   0.00   0.00   1.24   3.98   3.98   3.98   3.98   3.98   3.98   3.98   3.58   0.00   0.00      0      0      0       0    1260
 2000 357   129   126   22.0      5   2.38   3339   3793   1462   6202  11129   3116   46.9  0.131   3997      7  0.000  0.000  0.143  0.000   1.19  36.57   0.36      0   3997     71.4   0.00   0.00   1.25   4.00   4.00   4.00   4.00   4.00   4.00   3.99   3.77   0.00   0.00      0      0      0       0    1291
 2000 358   130   127   22.0      5   2.34   3339   3793   1606   6184  11273   3116   51.5  0.142   4141      7  0.000  0.000  0.150  0.000   1.17  38.78   0.37      0   4141     70.1   0.00   0.00   1.25   4.00   4.00   4.00   3.99   3.99   3.99   3.98   3.79   0.00   0.00      0      0      0       0    1322
 2000 359   131   128   22.0      5   2.30   3339   3793   1768   6223  11435   3116   56.7  0.155   4303      7  0.000  0.000  0.152  0.000   1.15  41.08   0.38      0   4303     68.7   0.00   0.00   1.25   4.00   4.00   4.00   4.00   4.00   4.00   4.00   3.99   0.00   0.00      0      0      0       0    1352
 2000 360   132   129   22.0      5   2.25   3339   3793   2001   6241  11669   3116   64.2  0.172   4536      7  0.000  0.000  0.152  0.000   1.12  44.12   0.39      0   4536     67.4   0.00   0.00   1.25   4.00   4.00   4.00   4.00   4.00   4.00   4.00   4.00   0.00   0.00      0      0      0       0    1384
 2000 361   133   130   22.0      5   2.21   3339   3793   2235   6269  11902   3116   71.7  0.188   4770      7  0.000  0.000  0.155  0.000   1.09  46.85   0.40      0   4770     66.1   0.00   0.00   1.25   4.00   4.00   4.00   4.00   4.00   4.00   4.00   4.00   0.00   0.00      0      0      0       0    1415
 2000 362   134   131   22.0      5   2.16   3339   3695   2469   6237  12039   3116   79.2  0.205   5004      7  0.000  0.000  0.162  0.000   1.07  49.34   0.42      0   5004     64.8   0.00   0.00   1.25   4.00   4.00   4.00   4.00   4.00   4.00   4.00   4.00   0.00   0.00      0      0      0       0    1446
 2000 363   135   132   22.0      5   2.12   3339   3710   2675   6214  12259   3116   85.8  0.218   5210      7  0.000  0.000  0.170  0.084   1.04  51.34   0.42      0   5210     63.4   0.00   0.00   1.25   4.00   4.00   4.00   3.99   3.99   3.99   3.98   3.99   0.00   0.00      0      0      0       0    1477
 2000 364   136   133   22.0      5   2.07   3339   3733   2860   6194  12468   3116   91.8  0.229   5395      7  0.000  0.000  0.170  0.089   1.01  53.01   0.43      0   5395     62.1   0.00   0.00   1.25   4.00   4.00   4.00   3.98   3.98   3.98   3.97   3.99   0.00   0.00      0      0      0       0    1508
 2000 365   137   134   22.0      5   2.03   3339   3793   3053   6221  12720   3116   98.0  0.240   5588      7  0.000  0.000  0.175  0.026   0.98  54.63   0.44      0   5588     60.7   0.00   0.00   1.25   4.00   4.00   4.00   4.00   4.00   4.00   3.99   4.00   0.00   0.00      0      0      0       0    1539
 2000 366   138   135   22.0      5   1.98   3339   3793   3287   6241  12954   3116  105.5  0.254   5822      7  0.000  0.000  0.180  0.000   0.95  56.45   0.45      0   5822     59.3   0.00   0.00   1.25   4.00   4.00   4.00   4.00   4.00   4.00   4.00   4.00   0.00   0.00      0      0      0       0    1570
 2001 001   139   136   22.0      5   1.93   3339   3793   3520   6260  13188   3116  113.0  0.267   6055      7  0.000  0.000  0.189  0.000   0.93  58.13   0.46      0   6055     57.9   0.00   0.00   1.25   4.00   4.00   4.00   4.00   4.00   4.00   4.00   4.00   0.00   0.00      0      0      0       0    1602
 2001 002   140   137   22.0      5   1.89   3339   3793   3754   6275  13421   3116  120.5  0.280   6289      7  0.000  0.000  0.196  0.000   0.90  59.69   0.47      0   6289     56.5   0.00   0.00   1.25   4.00   4.00   4.00   4.00   4.00   4.00   4.00   4.00   0.00   0.00      0      0      0       0    1633
 2001 003   141   138   22.0      5   1.84   3339   3793   3988   6287  13655   3116  128.0  0.292   6523      7  0.000  0.000  0.206  0.000   0.87  61.13   0.48      0   6523     55.1   0.00   0.00   1.25   4.00   4.00   4.00   4.00   4.00   4.00   4.00   3.99   0.00   0.00      0      0      0       0    1664
 2001 004   142   139   22.0      5   1.79   3339   3793   4221   6261  13889   3116  135.5  0.304   6756      7  0.000  0.000  0.221  0.000   0.85  62.48   0.49      0   6756     53.7   0.00   0.00   1.25   4.00   4.00   4.00   3.99   3.99   3.99   3.98   3.98   0.00   0.00      0      0      0       0    1696
 2001 005   143   140   22.0      5   1.74   3339   3793   4455   6267  14122   3116  143.0  0.315   6990      7  0.000  0.000  0.240  0.000   0.82  63.73   0.49      0   6990     52.2   0.00   0.00   1.25   4.00   4.00   4.00   4.00   4.00   4.00   3.99   3.97   0.00   0.00      0      0      0       0    1727
 2001 006   144   141   22.0      5   1.70   3339   3793   4689   6265  14356   3116  150.5  0.327   7224      7  0.000  0.000  0.259  0.000   0.80  64.91   0.50      0   7224     50.8   0.00   0.00   1.25   4.00   4.00   4.00   4.00   4.00   4.00   3.99   3.96   0.00   0.00      0      0      0       0    1758
 2001 007   145   142   22.0      5   1.65   3339   3694   4922   6234  14491   3116  158.0  0.340   7457      7  0.000  0.000  0.279  0.000   0.78  66.00   0.51      0   7457     49.4   0.00   0.00   1.25   4.00   4.00   4.00   4.00   4.00   4.00   3.99   3.96   0.00   0.00      0      0      0       0    1790
 2001 008   146   143   22.0      5   1.60   3339   3684   5156   6203  14715   3116  165.5  0.350   7691      7  0.000  0.000  0.304  0.000   0.76  67.04   0.52      0   7691     47.9   0.00   0.00   1.25   4.00   4.00   4.00   4.00   4.00   4.00   3.99   3.96   0.00   0.00      0      0      0       0    1821
 2001 009   147   144   22.0      5   1.55   3339   3708   5390   6184  14973   3116  173.0  0.360   7925      7  0.000  0.000  0.311  0.150   0.73  68.01   0.53      0   7925     46.5   0.00   0.00   1.25   4.00   4.00   4.00   4.00   3.99   3.99   3.98   3.95   0.00   0.00      0      0      0       0    1852
 2001 010   148   145   22.0      5   1.50   3339   3626   5564   6153  15065   3116  178.6  0.369   8100      7  0.000  0.000  0.339  0.191   0.72  68.70   0.54      0   8100     45.1   0.00   0.00   1.25   4.00   4.00   4.00   4.00   3.99   3.99   3.98   3.95   0.00   0.00      0      0      0       0    1883
 2001 011   149   146   22.0      5   1.46   3339   3710   5709   6164  15293   3116  183.2  0.373   8244      7  0.000  0.000  0.362  0.132   0.70  69.25   0.54      0   8244     43.6   0.00   0.00   1.25   4.00   4.00   4.00   4.00   4.00   4.00   4.00   3.94   0.00   0.00      0      0      0       0    1914
 2001 012   150   147   22.0      5   1.41   3339   3793   5834   6178  15501   3116  187.2  0.376   8369      7  0.000  0.000  0.360  0.038   0.69  69.71   0.54      0   8369     42.2   0.00   0.00   1.25   4.00   4.00   4.00   4.00   4.00   4.00   4.00   3.94   0.00   0.00      0      0      0       0    1944
 2001 013   151   148   22.0      5   1.37   3339   3793   6027   6153  15694   3116  193.4  0.384   8562      7  0.000  0.000  0.376  0.006   0.67  70.39   0.55      0   8562     40.9   0.00   0.00   1.25   4.00   4.00   4.00   3.99   3.99   3.99   3.98   3.92   0.00   0.00      0      0      0       0    1975
 2001 014   152   149   22.0      5   1.32   3339   3706   6261   6122  15842   3116  200.9  0.395   8796      7  0.000  0.000  0.403  0.096   0.66  71.18   0.56      0   8796     39.5   0.00   0.00   1.25   4.00   4.00   4.00   3.99   3.99   3.99   3.98   3.92   0.00   0.00      0      0      0       0    2006
 2001 015   153   150   22.0      5   1.27   3339   3683   6494   6091  16052   3116  208.4  0.405   9030      7  0.000  0.000  0.427  0.053   0.64  71.92   0.56      0   9030     38.1   0.00   0.00   1.25   4.00   4.00   4.00   3.99   3.99   3.99   3.98   3.92   0.00   0.00      0      0      0       0    2037
 2001 016   154   151   22.0      5   1.23   3339   3630   6728   6061  16233   3116  215.9  0.414   9263      7  0.000  0.000  0.439  0.027   0.63  72.63   0.57      0   9263     36.8   0.00   0.00   1.25   4.00   4.00   4.00   3.99   3.99   3.99   3.98   3.92   0.00   0.00      0      0      0       0    2067
 2001 017   155   152   22.0      5   1.19   3339   3507   6962   6031  16343   3116  223.4  0.426   9497      7  0.000  0.000  0.460  0.008   0.62  73.31   0.58      0   9497     35.5   0.00   0.00   1.25   4.00   4.00   4.00   3.99   3.99   3.99   3.98   3.92   0.00   0.00      0      0      0       0    2097
 2001 018   156   153   22.0      5   1.14   3339   3362   7195   6000  16432   3116  230.9  0.438   9731      7  0.000  0.000  0.474  0.002   0.62  73.95   0.59      0   9731     34.2   0.00   0.00   1.25   4.00   4.00   4.00   3.99   3.99   3.99   3.98   3.92   0.00   0.00      0      0      0       0    2128
 2001 019   157   154   22.0      5   1.10   3339   3236   7423   5970  16534   3116  238.3  0.449   9959      7  0.000  0.000  0.477  0.000   0.61  74.54   0.60      0   9959     33.0   0.00   0.00   1.25   4.00   4.00   4.00   3.99   3.99   3.99   3.98   3.92   0.00   0.00      0      0      0       0    2158
 2001 020   158   155   22.0      5   1.06   3339   3246   7609   5946  16729   3116  244.2  0.455  10144      7  0.000  0.000  0.474  0.000   0.60  75.01   0.61      0  10144     31.8   0.00   0.00   1.25   4.00   4.00   4.00   3.97   3.97   3.97   3.97   3.91   0.00   0.00      0      0      0       0    2187
 2001 021   159   156   22.0      5   1.02   3339   3261   7782   5923  16918   3116  249.8  0.460  10318      7  0.000  0.000  0.469  0.000   0.59  75.43   0.61      0  10318     30.6   0.00   0.00   1.25   4.00   4.00   4.00   3.97   3.96   3.96   3.95   3.89   0.00   0.00      0      0      0       0    2217
 2001 022   160   157   22.0      5   0.98   3339   3135   7996   5894  17006   3116  256.6  0.470  10531      7  0.000  0.000  0.487  0.000   0.58  75.93   0.62      0  10531     29.5   0.00   0.00   1.25   4.00   4.00   4.00   3.97   3.96   3.96   3.95   3.89   0.00   0.00      0      0      0       0    2247
 2001 023   161   158   22.0      5   0.98   3339   3135   7996   5894  17006   3116  256.6  0.470  10531      7  0.000  0.000  0.487  0.000   0.58  75.93   0.62      0  10531     29.5   0.00   0.00   1.25   4.00   4.00   4.00   3.97   3.96   3.96   3.95   3.89   0.00   0.00      0      0      0       0    2247
 2001 024   162   159   22.0      5   0.98   3339   3135   7996   5894  17006   3116  256.6  0.470  10531      7  0.000  0.000  0.487  0.000   0.58  75.93   0.62      0  10531     29.5   0.00   0.00   1.25   4.00   4.00   4.00   3.97   3.96   3.96   3.95   3.89   0.00   0.00      0      0      0       0    2247
 2001 025   163   160   22.0      5   0.98   3339   3135   7996   5894  17006   3116  256.6  0.470  10531      7  0.000  0.000  0.487  0.000   0.58  75.93   0.62      0  10531     29.5   0.00   0.00   1.25   4.00   4.00   4.00   3.97   3.96   3.96   3.95   3.89   0.00   0.00      0      0      0       0    2247

*DSSAT Cropping System Model Ver. 4.0.2.000               Aug 19, 2016; 14:33:09

*RUN   2        : UYMZ                    
 MODEL          : MZCER040 - Maize           
 EXPERIMENT     : UYMZ0218 MZ    late to create DSS                             
 TREATMENT  1   : UYMZ                    

@YEAR DOY   DAS   DAP   L#SD   GSTD   LAID   LWAD   SWAD   GWAD   RWAD   CWAD   G#AD   GWGD   HIAD   PWAD   P#AD   WSPD   WSGD   NSTD   EWSD   LN%D   SH%D   HIPD   PWDD   PWTD     SLAD   CHTD   CWID   RDPD   RL1D   RL2D   RL3D   RL4D   RL5D   RL6D   RL7D   RL8D   RL9D   RL10   CDAD   LDAD   SDAD   SNW0C   SNW1C
 2001 231     3     0    0.0      0   0.00      0      0      0      0      0      0    0.0  0.000      0      0  0.000  0.000  0.000  0.000   0.00   0.00   0.00      0      0      0.0   0.00   0.00   0.03   0.00   0.00   0.00   0.00   0.00   0.00   0.00   0.00   0.00   0.00      0      0      0       0       0
 2001 232     4     1    0.0      0   0.00      0      0      0      0      0      0    0.0  0.000      0      0  0.000  0.000  0.000  0.000   0.00   0.00   0.00      0      0      0.0   0.00   0.00   0.03   0.00   0.00   0.00   0.00   0.00   0.00   0.00   0.00   0.00   0.00      0      0      0       0       0
 2001 233     5     2    0.0      0   0.00      0      0      0      0      0      0    0.0  0.000      0      0  0.000  0.000  0.000  0.000   0.00   0.00   0.00      0      0      0.0   0.00   0.00   0.03   0.00   0.00   0.00   0.00   0.00   0.00   0.00   0.00   0.00   0.00      0      0      0       0       0
 2001 234     6     3    0.0      0   0.00      0      0      0      0      0      0    0.0  0.000      0      0  0.000  0.000  0.000  0.000   0.00   0.00   0.00      0      0      0.0   0.00   0.00   0.04   0.00   0.00   0.00   0.00   0.00   0.00   0.00   0.00   0.00   0.00      0      0      0       0       0
 2001 235     7     4    0.0      0   0.00      0      0      0      0      0      0    0.0  0.000      0      0  0.000  0.000  0.000  0.000   0.00   0.00   0.00      0      0      0.0   0.00   0.00   0.05   0.00   0.00   0.00   0.00   0.00   0.00   0.00   0.00   0.00   0.00      0      0      0       0       0
 2001 236     8     5    0.0      0   0.00      0      0      0      0      0      0    0.0  0.000      0      0  0.000  0.000  0.000  0.000   0.00   0.00   0.00      0      0      0.0   0.00   0.00   0.06   0.00   0.00   0.00   0.00   0.00   0.00   0.00   0.00   0.00   0.00      0      0      0       0       0
 2001 237     9     6    0.0      0   0.00      0      0      0      0      0      0    0.0  0.000      0      0  0.000  0.000  0.000  0.000   0.00   0.00   0.00      0      0      0.0   0.00   0.00   0.07   0.00   0.00   0.00   0.00   0.00   0.00   0.00   0.00   0.00   0.00      0      0      0       0       0
 2001 238    10     7    0.0      0   0.00      0      0      0      0      0      0    0.0  0.000      0      0  0.000  0.000  0.000  0.000   0.00   0.00   0.00      0      0      0.0   0.00   0.00   0.09   0.00   0.00   0.00   0.00   0.00   0.00   0.00   0.00   0.00   0.00      0      0      0       0       0
 2001 239    11     8    0.0      0   0.00      0      0      0      0      0      0    0.0  0.000      0      0  0.000  0.000  0.000  0.000   0.00   0.00   0.00      0      0      0.0   0.00   0.00   0.10   0.00   0.00   0.00   0.00   0.00   0.00   0.00   0.00   0.00   0.00      0      0      0       0       0
 2001 240    12     9    0.0      0   0.00      0      0      0      0      0      0    0.0  0.000      0      0  0.000  0.000  0.000  0.000   0.00   0.00   0.00      0      0      0.0   0.00   0.00   0.11   0.00   0.00   0.00   0.00   0.00   0.00   0.00   0.00   0.00   0.00      0      0      0       0       0
 2001 241    13    10    0.0      0   0.00      0      0      0      0      0      0    0.0  0.000      0      0  0.000  0.000  0.000  0.000   0.00   0.00   0.00      0      0      0.0   0.00   0.00   0.12   0.00   0.00   0.00   0.00   0.00   0.00   0.00   0.00   0.00   0.00      0      0      0       0       0
 2001 242    14    11    1.0      1   0.00     14     14      0     14     28      0    0.0  0.000      0      0  0.000  0.000  0.012  0.000   4.40   0.00   0.00      0      0     22.6   0.00   0.00   0.13   0.28   0.10   0.00   0.00   0.00   0.00   0.00   0.00   0.00   0.00      0      0      0       0       0
 2001 243    15    12    2.0      1   0.01     14     14      0     14     28      0    0.0  0.000      0      0  0.000  0.000  0.014  0.000   4.51   0.00   0.00      0      0     42.3   0.00   0.00   0.14   0.26   0.09   0.00   0.00   0.00   0.00   0.00   0.00   0.00   0.00      0      0      0       0       0
 2001 244    16    13    2.0      1   0.01     14     14      0     14     28      0    0.0  0.000      0      0  0.000  0.000  0.000  0.000   4.51   0.00   0.00      0      0     60.2   0.00   0.00   0.15   0.24   0.09   0.00   0.00   0.00   0.00   0.00   0.00   0.00   0.00      0      0      0       0       0
 2001 245    17    14    2.0      1   0.01     14     14      0     15     28      0    0.0  0.000      0      0  0.000  0.000  0.000  0.279   4.51   0.00   0.00      0      0     69.9   0.00   0.00   0.16   0.22   0.09   0.00   0.00   0.00   0.00   0.00   0.00   0.00   0.00      0      0      0       0       0
 2001 246    18    15    3.0      1   0.01     14     14      0     15     28      0    0.0  0.000      0      0  0.000  0.000  0.000  0.334   4.51   0.00   0.00      0      0     78.3   0.00   0.00   0.17   0.21   0.09   0.00   0.00   0.00   0.00   0.00   0.00   0.00   0.00      0      0      0       0       0
 2001 247    19    16    3.0      1   0.01     14     14      0     15     28      0    0.0  0.000      0      0  0.000  0.000  0.000  0.176   4.51   0.00   0.00      0      0     84.9   0.00   0.00   0.17   0.20   0.09   0.00   0.00   0.00   0.00   0.00   0.00   0.00   0.00      0      0      0       0       0
 2001 248    20    17    3.0      1   0.01     14     14      0     16     28      0    0.0  0.000      0      0  0.000  0.000  0.000  0.049   4.43   0.00   0.00      0      0     94.7   0.00   0.00   0.17   0.19   0.10   0.00   0.00   0.00   0.00   0.00   0.00   0.00   0.00      0      0      0       0       0
 2001 249    21    18    3.0      1   0.02     14     14      0     17     28      0    0.0  0.000      0      0  0.000  0.000  0.000  0.004   4.42   0.00   0.00      0      0    109.3   0.00   0.00   0.18   0.19   0.11   0.01   0.00   0.00   0.00   0.00   0.00   0.00   0.00      0      0      0       0       0
 2001 250    22    19    3.0      1   0.02     14     14      0     18     28      0    0.0  0.000      0      0  0.000  0.000  0.000  0.026   4.42   0.00   0.00      0      0    127.3   0.00   0.00   0.19   0.17   0.11   0.01   0.00   0.00   0.00   0.00   0.00   0.00   0.00      0      0      0       0       0
 2001 251    23    20    4.0      1   0.02     14     14      0     21     28      0    0.0  0.000      0      0  0.000  0.000  0.000  0.027   4.38   0.00   0.00      0      0    173.5   0.00   0.00   0.19   0.17   0.13   0.03   0.00   0.00   0.00   0.00   0.00   0.00   0.00      0      0      0       0       0
 2001 252    24    21    4.0      1   0.03     14     14      0     22     28      0    0.0  0.000      0      0  0.000  0.000  0.000  0.044   4.37   0.00   0.00      0      0    201.2   0.00   0.00   0.20   0.16   0.14   0.04   0.00   0.00   0.00   0.00   0.00   0.00   0.00      0      0      0       0       0
 2001 253    25    22    4.0      1   0.03     14     14      0     26     28      0    0.0  0.000      0      0  0.000  0.000  0.000  0.026   4.36   0.00   0.00      0      0    233.8   0.00   0.00   0.20   0.16   0.17   0.06   0.00   0.00   0.00   0.00   0.00   0.00   0.00      0      0      0       0       0
 2001 254    26    23    4.0      1   0.04     14     14      0     30     28      0    0.0  0.000      0      0  0.000  0.000  0.000  0.008   4.35   0.00   0.00      0      0    270.2   0.00   0.00   0.21   0.16   0.21   0.09   0.00   0.00   0.00   0.00   0.00   0.00   0.00      0      0      0       0       1
 2001 255    27    24    4.0      1   0.04     14     14      0     35     28      0    0.0  0.000      0      0  0.000  0.000  0.000  0.000   4.34   0.00   0.00      0      0    297.5   0.00   0.00   0.21   0.16   0.25   0.13   0.00   0.00   0.00   0.00   0.00   0.00   0.00      0      0      0       0       1
 2001 256    28    25    4.0      1   0.05     16     14      0     40     30      0    0.0  0.000      0      0  0.000  0.000  0.000  0.000   4.04   0.00   0.00      0      0    323.2   0.00   0.00   0.22   0.17   0.29   0.16   0.00   0.00   0.00   0.00   0.00   0.00   0.00      0      0      0       0       1
 2001 257    29    26    4.0      1   0.06     18     14      0     43     32      0    0.0  0.000      0      0  0.000  0.000  0.000  0.000   4.04   0.00   0.00      0      0    317.0   0.00   0.00   0.22   0.17   0.31   0.18   0.00   0.00   0.00   0.00   0.00   0.00   0.00      0      0      0       0       1
 2001 258    30    27    4.0      1   0.06     19     14      0     46     33      0    0.0  0.000      0      0  0.000  0.000  0.000  0.000   4.16   0.00   0.00      0      0    311.7   0.00   0.00   0.22   0.18   0.34   0.21   0.00   0.00   0.00   0.00   0.00   0.00   0.00      0      0      0       0       1
 2001 259    31    28    4.0      1   0.06     20     14      0     49     34      0    0.0  0.000      0      0  0.000  0.000  0.000  0.000   4.23   0.00   0.00      0      0    307.0   0.00   0.00   0.23   0.18   0.35   0.23   0.00   0.00   0.00   0.00   0.00   0.00   0.00      0      0      0       0       2
 2001 260    32    29    5.0      1   0.06     21     14      0     54     35      0    0.0  0.000      0      0  0.000  0.000  0.000  0.000   4.10   0.00   0.00      0      0    274.2   0.00   0.00   0.23   0.19   0.39   0.27   0.00   0.00   0.00   0.00   0.00   0.00   0.00      0      0      0       0       2
 2001 261    33    30    5.0      1   0.07     26     14      0     62     40      0    0.0  0.000      0      0  0.000  0.000  0.000  0.000   3.75   0.00   0.00      0      0    269.5   0.00   0.00   0.24   0.22   0.45   0.33   0.00   0.00   0.00   0.00   0.00   0.00   0.00      0      0      0       0       2
 2001 262    34    31    5.0      1   0.09     33     14      0     69     47      0    0.0  0.000      0      0  0.000  0.000  0.000  0.000   3.64   0.00   0.00      0      0    263.3   0.00   0.00   0.25   0.23   0.49   0.38   0.00   0.00   0.00   0.00   0.00   0.00   0.00      0      0      0       0       2
 2001 263    35    32    5.0      1   0.11     43     14      0     80     57      0    0.0  0.000      0      0  0.000  0.000  0.000  0.000   3.49   0.00   0.00      0      0    255.0   0.00   0.00   0.26   0.26   0.55   0.47   0.00   0.00   0.00   0.00   0.00   0.00   0.00      0      0      0       0       3
 2001 264    36    33    6.0      1   0.13     54     14      0     84     68      0    0.0  0.000      0      0  0.000  0.000  0.000  0.000   3.49   0.00   0.00      0      0    246.9   0.00   0.00   0.27   0.27   0.57   0.50   0.00   0.00   0.00   0.00   0.00   0.00   0.00      0      0      0       0       3
 2001 265    37    34    6.0      1   0.16     68     14      0     95     82      0    0.0  0.000      0      0  0.000  0.000  0.000  0.000   3.50   0.00   0.00      0      0    239.2   0.00   0.00   0.28   0.30   0.63   0.60   0.00   0.00   0.00   0.00   0.00   0.00   0.00      0      0      0       0       4
 2001 266    38    35    6.0      1   0.19     82     14      0    105     96      0    0.0  0.000      0      0  0.000  0.000  0.000  0.000   3.53   0.00   0.00      0      0    232.2   0.00   0.00   0.29   0.33   0.68   0.69   0.00   0.00   0.00   0.00   0.00   0.00   0.00      0      0      0       0       4
 2001 267    39    36    7.0      1   0.23    101     14      0    113    115      0    0.0  0.000      0      0  0.000  0.000  0.000  0.000   3.40   0.00   0.00      0      0    224.1   0.00   0.00   0.31   0.35   0.72   0.77   0.00   0.00   0.00   0.00   0.00   0.00   0.00      0      0      0       0       5
 2001 268    40    37    7.0      1   0.25    113     14      0    119    127      0    0.0  0.000      0      0  0.000  0.000  0.000  0.000   3.72   0.00   0.00      0      0    220.2   0.00   0.00   0.31   0.36   0.75   0.82   0.00   0.00   0.00   0.00   0.00   0.00   0.00      0      0      0       0       5
 2001 269    41    38    7.0      1   0.27    123     14      0    131    137      0    0.0  0.000      0      0  0.000  0.000  0.000  0.000   3.77   0.00   0.00      0      0    217.0   0.00   0.00   0.32   0.39   0.81   0.92   0.01   0.00   0.00   0.00   0.00   0.00   0.00      0      0      0       0       6
 2001 270    42    39    7.0      1   0.28    131     14      0    137    145      0    0.0  0.000      0      0  0.000  0.000  0.000  0.000   3.84   0.00   0.00      0      0    214.7   0.00   0.00   0.32   0.40   0.83   0.97   0.01   0.00   0.00   0.00   0.00   0.00   0.00      0      0      0       0       6
 2001 271    43    40    7.0      1   0.31    149     14      0    142    163      0    0.0  0.000      0      0  0.000  0.000  0.000  0.000   3.60   0.00   0.00      0      0    210.0   0.00   0.00   0.33   0.41   0.86   1.02   0.01   0.00   0.00   0.00   0.00   0.00   0.00      0      0      0       0       7
 2001 272    44    41    8.0      1   0.33    159     14      0    165    173      0    0.0  0.000      0      0  0.000  0.000  0.000  0.516   3.77   0.00   0.00      0      0    207.5   0.00   0.00   0.35   0.38   0.89   1.16   0.04   0.00   0.00   0.00   0.00   0.00   0.00      0      0      0       0       8
 2001 273    45    42    8.0      1   0.35    169     14      0    177    183      0    0.0  0.000      0      0  0.000  0.000  0.000  0.559   3.79   0.00   0.00      0      0    205.5   0.00   0.00   0.36   0.36   0.87   1.19   0.06   0.00   0.00   0.00   0.00   0.00   0.00      0      0      0       0       9
 2001 274    46    43    8.0      1   0.35    171     14      0    193    185      0    0.0  0.000      0      0  0.000  0.000  0.000  0.897   3.85   0.00   0.00      0      0    205.0   0.00   0.00   0.37   0.32   0.81   1.21   0.09   0.00   0.00   0.00   0.00   0.00   0.00      0      0      0       0       9
 2001 275    47    44    8.0      1   0.36    179     14      0    209    193      0    0.0  0.000      0      0  0.000  0.000  0.009  0.603   3.79   0.00   0.00      0      0    203.2   0.00   0.00   0.38   0.31   0.79   1.28   0.13   0.00   0.00   0.00   0.00   0.00   0.00      0      0      0       0      10
 2001 276    48    45    9.0      1   0.38    190     14      0    224    204      0    0.0  0.000      0      0  0.000  0.000  0.000  0.495   3.72   0.00   0.00      0      0    200.8   0.00   0.00   0.39   0.29   0.77   1.35   0.17   0.00   0.00   0.00   0.00   0.00   0.00      0      0      0       0      11
 2001 277    49    46    9.0      1   0.41    208     14      0    252    222      0    0.0  0.000      0      0  0.000  0.000  0.000  0.383   3.60   0.00   0.00      0      0    197.1   0.00   0.00   0.41   0.29   0.79   1.53   0.25   0.00   0.00   0.00   0.00   0.00   0.00      0      0      0       0      13
 2001 278    50    47    9.0      2   0.45    215     14      0    306    229      0    0.0  0.000      0      0  0.000  0.000  0.000  0.169   3.76   0.00   0.00      0      0    208.9   0.00   0.00   0.42   0.29   0.87   1.93   0.44   0.00   0.00   0.00   0.00   0.00   0.00      0      0      0       0      14
 2001 279    51    48    9.0      2   0.50    247     14      0    344    261      0    0.0  0.000      0      0  0.000  0.000  0.000  0.025   3.42   0.00   0.00      0      0    203.0   0.00   0.00   0.43   0.30   0.92   2.22   0.59   0.00   0.00   0.00   0.00   0.00   0.00      0      0      0       0      15
 2001 280    52    49    9.0      2   0.53    266     14      0    358    280      0    0.0  0.000      0      0  0.000  0.000  0.000  0.446   3.56   0.00   0.00      0      0    199.9   0.00   0.00   0.44   0.29   0.89   2.19   0.62   0.00   0.00   0.00   0.00   0.00   0.00      0      0      0       0      17
 2001 281    53    50   10.0      2   0.57    293     14      0    388    307      0    0.0  0.000      0      0  0.000  0.000  0.000  0.265   3.78   0.00   0.00      0      0    196.0   0.00   0.00   0.45   0.28   0.91   2.34   0.74   0.00   0.00   0.00   0.00   0.00   0.00      0      0      0       0      19
 2001 282    54    51   10.0      3   0.61    319     14      0    421    333      0    0.0  0.000      0      0  0.000  0.000  0.022  0.184   3.68   0.00   0.00      0      0    190.9   0.00   0.00   0.46   0.29   0.92   2.47   0.88   0.02   0.00   0.00   0.00   0.00   0.00      0      0      0       0      21
 2001 283    55    52   10.0      3   0.68    363     14      0    496    377      0    0.0  0.000      0      0  0.000  0.000  0.022  0.021   3.57   0.00   0.00      0      0    186.1   0.00   0.00   0.48   0.31   0.97   2.86   1.21   0.13   0.00   0.00   0.00   0.00   0.00      0      0      0       0      23
 2001 284    56    53   10.0      3   0.75    410     15      0    584    425      0    0.0  0.000      0      0  0.000  0.000  0.022  0.003   3.54   0.00   0.00      0      0    181.7   0.00   0.00   0.49   0.35   1.00   3.20   1.67   0.38   0.00   0.00   0.00   0.00   0.00      0      0      0       0      25
 2001 285    57    54   11.0      3   0.81    455     15      0    625    470      0    0.0  0.000      0      0  0.000  0.000  0.022  0.005   3.51   0.00   0.00      0      0    178.0   0.00   0.00   0.50   0.37   1.01   3.27   1.89   0.56   0.00   0.00   0.00   0.00   0.00      0      0      0       0      28
 2001 286    58    55   11.0      3   0.88    502     17      0    706    519      0    0.0  0.000      0      0  0.000  0.000  0.022  0.004   3.48   0.00   0.00      0      0    174.4   0.00   0.00   0.51   0.42   1.06   3.39   2.33   0.99   0.00   0.00   0.00   0.00   0.00      0      0      0       0      31
 2001 287    59    56   11.0      3   0.96    563     19      0    782    582      0    0.0  0.000      0      0  0.000  0.000  0.022  0.000   3.42   0.00   0.00      0      0    170.5   0.00   0.00   0.52   0.48   1.11   3.43   2.72   1.50   0.00   0.00   0.00   0.00   0.00      0      0      0       0      35
 2001 288    60    57   11.0      3   1.04    626     22      0    788    648      0    0.0  0.000      0      0  0.000  0.000  0.022  0.000   3.41   0.00   0.00      0      0    166.9   0.00   0.00   0.54   0.49   1.12   3.42   2.75   1.56   0.00   0.00   0.00   0.00   0.00      0      0      0       0      39
 2001 289    61    58   12.0      3   1.16    711     29      0    800    740      0    0.0  0.000      0      0  0.000  0.000  0.022  0.000   3.28   0.00   0.00      0      0    162.8   0.00   0.00   0.55   0.50   1.12   3.42   2.79   1.67   0.00   0.00   0.00   0.00   0.00      0      0      0       0      43
 2001 290    62    59   12.0      3   1.25    780     36      0    862    815      0    0.0  0.000      0      0  0.000  0.000  0.022  0.265   3.07   0.00   0.00      0      0    159.7   0.00   0.00   0.57   0.54   1.12   3.28   2.76   2.11   0.00   0.00   0.00   0.00   0.00      0      0      0       0      47
 2001 291    63    60   12.0      3   1.36    873     48      0    910    920      0    0.0  0.000      0      0  0.000  0.000  0.022  0.145   2.86   0.00   0.00      0      0    156.2   0.00   0.00   0.58   0.58   1.15   3.24   2.75   2.50   0.00   0.00   0.00   0.00   0.00      0      0      0       0      51
 2001 292    64    61   13.0      3   1.49    977     65      0    994   1042      0    0.0  0.000      0      0  0.000  0.000  0.022  0.056   2.64   0.00   0.00      0      0    152.7   0.00   0.00   0.60   0.72   1.29   3.36   2.79   3.29   0.00   0.00   0.00   0.00   0.00      0      0      0       0      56
 2001 293    65    62   13.0      3   1.62   1081     87      0   1073   1168      0    0.0  0.000      0      0  0.000  0.000  0.030  0.019   2.44   0.00   0.00      0      0    149.4   0.00   0.00   0.62   0.83   1.39   3.43   2.79   3.74   0.13   0.00   0.00   0.00   0.00      0      0      0       0      61
 2001 294    66    63   13.0      3   1.67   1134     99      0   1208   1233      0    0.0  0.000      0      0  0.000  0.000  0.043  0.012   2.56   0.00   0.00      0      0    147.4   0.00   0.00   0.62   1.04   1.59   3.59   2.84   4.00   0.47   0.00   0.00   0.00   0.00      0      0      0       0      66
 2001 295    67    64   13.0      3   1.72   1179    110      0   1385   1289      0    0.0  0.000      0      0  0.000  0.000  0.043  0.007   2.73   0.00   0.00      0      0    145.6   0.00   0.00   0.63   1.33   1.87   3.85   2.94   4.00   1.04   0.00   0.00   0.00   0.00      0      0      0       0      72
 2001 296    68    65   14.0      3   1.78   1237    126      0   1548   1363      0    0.0  0.000      0      0  0.000  0.000  0.034  0.007   2.79   0.00   0.00      0      0    143.9   0.00   0.00   0.64   1.62   2.15   4.00   3.04   4.00   1.65   0.00   0.00   0.00   0.00      0      0      0       0      79
 2001 297    69    66   14.0      3   1.88   1325    154      0   1688   1479      0    0.0  0.000      0      0  0.000  0.000  0.028  0.000   2.75   0.00   0.00      0      0    141.7   0.00   0.00   0.65   1.87   2.40   4.00   3.13   4.00   2.25   0.00   0.00   0.00   0.00      0      0      0       0      87
 2001 298    70    67   14.0      3   2.02   1455    202      0   1806   1657      0    0.0  0.000      0      0  0.000  0.000  0.025  0.000   2.60   0.00   0.00      0      0    139.1   0.00   0.00   0.67   2.06   2.59   4.00   3.20   4.00   2.78   0.00   0.00   0.00   0.00      0      0      0       0      95
 2001 299    71    68   15.0      3   2.13   1549    243      0   1805   1792      0    0.0  0.000      0      0  0.000  0.000  0.027  0.000   2.53   0.00   0.00      0      0    137.2   0.00   0.00   0.68   2.04   2.56   3.96   3.16   3.95   2.78   0.00   0.00   0.00   0.00      0      0      0       0     104
 2001 300    72    69   15.0      3   2.21   1631    283      0   1802   1914      0    0.0  0.000      0      0  0.000  0.000  0.033  0.000   2.42   0.00   0.00      0      0    135.5   0.00   0.00   0.69   1.92   2.41   3.71   2.96   3.70   2.62   0.00   0.00   0.00   0.00      0      0      0       0     113
 2001 301    73    70   15.0      3   2.26   1681    311      0   1823   1992      0    0.0  0.000      0      0  0.000  0.000  0.040  0.586   2.37   0.00   0.00      0      0    134.2   0.00   0.00   0.71   1.85   2.31   3.53   2.80   3.48   2.56   0.00   0.00   0.00   0.00      0      0      0       0     122
 2001 302    74    71   16.0      3   2.30   1731    342      0   1843   2074      0    0.0  0.000      0      0  0.000  0.000  0.046  0.585   2.32   0.00   0.00      0      0    132.8   0.00   0.00   0.72   1.78   2.21   3.35   2.64   3.28   2.50   0.00   0.00   0.00   0.00      0      0      0       0     131
 2001 303    75    72   16.0      3   2.36   1798    388      0   2008   2186      0    0.0  0.000      0      0  0.000  0.000  0.048  0.265   2.25   0.00   0.00      0      0    131.2   0.00   0.00   0.73   2.08   2.49   3.60   2.70   3.30   3.01   0.00   0.00   0.00   0.00      0      0      0       0     141
 2001 304    76    73   16.0      3   2.43   1875    443      0   2180   2318      0    0.0  0.000      0      0  0.000  0.000  0.050  0.067   2.17   0.00   0.00      0      0    129.6   0.00   0.00   0.74   2.48   2.89   3.98   2.85   3.42   3.53   0.00   0.00   0.00   0.00      0      0      0       0     151
 2001 305    77    74   16.0      3   2.50   1951    503      0   2350   2455      0    0.0  0.000      0      0  0.000  0.000  0.054  0.000   2.09   0.00   0.00      0      0    128.0   0.00   0.00   0.75   2.97   3.37   4.00   3.05   3.60   3.99   0.00   0.00   0.00   0.00      0      0      0       0     162
 2001 306    78    75   16.0      3   2.55   2021    562      0   2486   2583      0    0.0  0.000      0      0  0.000  0.000  0.060  0.000   2.02   0.00   0.00      0      0    126.4   0.00   0.00   0.76   3.42   3.82   4.00   3.23   3.76   4.00   0.00   0.00   0.00   0.00      0      0      0       0     173
 2001 307    79    76   17.0      3   2.61   2089    622      0   2659   2711      0    0.0  0.000      0      0  0.000  0.000  0.068  0.000   1.95   0.00   0.00      0      0    124.7   0.00   0.00   0.77   4.00   4.00   4.00   3.51   4.00   4.00   0.00   0.00   0.00   0.00      0      0      0       0     186
 2001 308    80    77   17.0      3   2.66   2165    696      0   2819   2861      0    0.0  0.000      0      0  0.000  0.000  0.074  0.000   1.87   0.00   0.00      0      0    123.0   0.00   0.00   0.78   4.00   4.00   4.00   3.79   4.00   4.00   0.00   0.00   0.00   0.00      0      0      0       0     199
 2001 309    81    78   17.0      3   2.74   2264    799      0   2931   3063      0    0.0  0.000      0      0  0.000  0.000  0.080  0.000   1.77   0.00   0.00      0      0    121.1   0.00   0.00   0.80   4.00   4.00   4.00   3.99   4.00   4.00   0.00   0.00   0.00   0.00      0      0      0       0     213
 2001 310    82    79   18.0      3   2.80   2351    898      0   2927   3249      0    0.0  0.000      0      0  0.000  0.000  0.087  0.000   1.69   0.00   0.00      0      0    119.2   0.00   0.00   0.81   4.00   4.00   4.00   3.99   4.00   3.99   0.00   0.00   0.00   0.00      0      0      0       0     228
 2001 311    83    80   18.0      3   2.86   2441    937      0   2919   3378      0    0.0  0.000      0      0  0.000  0.000  0.102  0.000   1.63   0.00   0.00      0      0    117.2   0.00   0.00   0.82   4.00   4.00   4.00   3.98   3.99   3.97   0.00   0.00   0.00   0.00      0      0      0       0     242
 2001 312    84    81   18.0      3   2.95   2565   1051      0   2945   3616      0    0.0  0.000      0      0  0.000  0.000  0.115  0.175   1.53   0.00   0.00      0      0    114.9   0.00   0.00   0.83   4.00   4.00   4.00   4.00   4.00   3.99   0.00   0.00   0.00   0.00      0      0      0       0     257
 2001 313    85    82   18.0      3   2.99   2654   1161      0   3001   3815      0    0.0  0.000      0      0  0.000  0.000  0.122  0.355   1.46   0.00   0.00      0      0    112.8   0.00   0.00   0.85   4.00   4.00   4.00   3.90   3.89   3.85   0.00   0.00   0.00   0.00      0      0      0       0     272
 2001 314    86    83   19.0      3   3.00   2717   1258      0   2995   3974      0    0.0  0.000      0      0  0.000  0.000  0.138  0.390   1.41   0.00   0.00      0      0    110.6   0.00   0.00   0.86   3.79   3.79   3.79   3.68   3.67   3.63   0.00   0.00   0.00   0.00      0      0      0       0     287
 2001 315    87    84   19.0      3   3.02   2784   1376      0   3133   4160      0    0.0  0.000      0      0  0.000  0.000  0.151  0.230   1.36   0.00   0.00      0      0    108.3   0.00   0.00   0.87   4.00   4.00   4.00   3.85   3.81   3.72   0.00   0.00   0.00   0.00      0      0      0       0     302
 2001 316    88    85   19.0      3   3.02   2849   1508      0   3248   4358      0    0.0  0.000      0      0  0.000  0.000  0.158  0.044   1.31   0.00   0.00      0      0    106.1   0.00   0.00   0.89   4.00   4.00   4.00   4.00   3.99   3.85   0.00   0.00   0.00   0.00      0      0      0       0     317
 2001 317    89    86   20.0      3   3.01   2896   1610      0   3240   4506      0    0.0  0.000      0      0  0.000  0.000  0.166  0.015   1.28   0.00   0.00      0      0    103.8   0.00   0.00   0.90   4.00   4.00   4.00   3.99   3.98   3.84   0.00   0.00   0.00   0.00      0      0      0       0     334
 2001 318    90    87   20.0      3   2.99   2946   1729      0   3304   4675      0    0.0  0.000      0      0  0.000  0.000  0.174  0.000   1.25   0.00   0.00      0      0    101.5   0.00   0.00   0.91   4.00   4.00   4.00   4.00   4.00   3.89   0.14   0.00   0.00   0.00      0      0      0       0     350
 2001 319    91    88   20.0      3   2.97   2989   1835      0   3443   4823      0    0.0  0.000      0      0  0.000  0.000  0.177  0.000   1.24   0.00   0.00      0      0     99.2   0.00   0.00   0.92   4.00   4.00   4.00   4.00   4.00   4.00   0.59   0.00   0.00   0.00      0      0      0       0     366
 2001 320    92    89   20.0      3   2.93   3016   1906      0   3588   4922      0    0.0  0.000      0      0  0.000  0.000  0.180  0.000   1.24   0.00   0.00      0      0     97.0   0.00   0.00   0.93   4.00   4.00   4.00   4.00   4.00   4.00   1.12   0.00   0.00   0.00      0      0      0       0     384
[...]
 2010 323    95    92   19.0      3   3.39   3776   1857      0   4106   5633      0    0.0  0.000      0      0  0.000  0.000  0.109  0.000   1.56   0.00   0.00      0      0     89.8   0.00   0.00   0.87   4.00   4.00   4.00   4.00   4.00   3.99   0.00   0.00   0.00   0.00      0      0      0       0     474
 2010 324    96    93   19.0      3   3.42   3855   2019      0   4145   5874      0    0.0  0.000      0      0  0.000  0.000  0.114  0.000   1.50   0.00   0.00      0      0     88.7   0.00   0.00   0.88   4.00   4.00   4.00   4.00   4.00   4.00   0.00   0.00   0.00   0.00      0      0      0       0     495
 2010 325    97    94   20.0      3   3.45   3938   2208      0   4194   6146      0    0.0  0.000      0      0  0.000  0.000  0.116  0.000   1.44   0.00   0.00      0      0     87.5   0.00   0.00   0.90   4.00   4.00   4.00   4.00   4.00   4.00   0.00   0.00   0.00   0.00      0      0      0       0     516
 2010 326    98    95   20.0      3   3.45   3997   2350      0   4270   6346      0    0.0  0.000      0      0  0.000  0.000  0.124  0.000   1.41   0.00   0.00      0      0     86.3   0.00   0.00   0.91   4.00   4.00   4.00   4.00   4.00   4.00   0.22   0.00   0.00   0.00      0      0      0       0     537
 2010 327    99    96   20.0      3   3.44   4051   2488      0   4293   6539      0    0.0  0.000      0      0  0.000  0.000  0.132  0.000   1.39   0.00   0.00      0      0     85.0   0.00   0.00   0.93   4.00   4.00   4.00   4.00   4.00   4.00   0.37   0.00   0.00   0.00      0      0      0       0     558
 2010 328   100    97   21.0      3   3.44   4108   2643      0   4294   6751      0    0.0  0.000      0      0  0.000  0.000  0.132  0.000   1.37   0.00   0.00      0      0     83.7   0.00   0.00   0.94   4.00   4.00   4.00   4.00   4.00   4.00   0.46   0.00   0.00   0.00      0      0      0       0     580
 2010 329   101    98   21.0      3   3.42   4152   2767      0   4437   6919      0    0.0  0.000      0      0  0.000  0.000  0.132  0.000   1.35   0.00   0.00      0      0     82.4   0.00   0.00   0.95   4.00   4.00   4.00   4.00   4.00   4.00   1.23   0.00   0.00   0.00      0      0      0       0     601
 2010 330   102    99   21.0      3   3.42   4206   2927      0   4565   7133      0    0.0  0.000      0      0  0.000  0.000  0.134  0.000   1.33   0.00   0.00      0      0     81.2   0.00   0.00   0.96   4.00   4.00   4.00   4.00   4.00   4.00   1.97   0.00   0.00   0.00      0      0      0       0     623
 2010 331   103   100   21.0      3   3.41   4266   3101      0   4635   7366      0    0.0  0.000      0      0  0.000  0.000  0.134  0.000   1.30   0.00   0.00      0      0     80.0   0.00   0.00   0.98   4.00   4.00   4.00   4.00   4.00   4.00   2.44   0.00   0.00   0.00      0      0      0       0     646
 2010 332   104   101   21.0      3   3.38   4298   3198      0   4679   7497      0    0.0  0.000      0      0  0.000  0.000  0.138  0.000   1.30   0.00   0.00      0      0     78.7   0.00   0.00   0.99   4.00   4.00   4.00   4.00   4.00   4.00   2.77   0.00   0.00   0.00      0      0      0       0     669
 2010 333   105   102   21.0      3   3.35   4326   3281      0   4755   7607      0    0.0  0.000      0      0  0.000  0.000  0.143  0.000   1.29   0.00   0.00      0      0     77.4   0.00   0.00   0.99   4.00   4.00   4.00   4.00   4.00   4.00   3.23   0.00   0.00   0.00      0      0      0       0     693
 2010 334   106   103   21.0      3   3.32   4363   3389      0   4907   7751      0    0.0  0.000      0      0  0.000  0.000  0.143  0.000   1.28   0.00   0.00      0      0     76.2   0.00   0.00   1.00   4.00   4.00   4.00   4.00   4.00   4.00   4.00   0.00   0.00   0.00      0      0      0       0     716
 2010 335   107   104   21.0      3   3.31   4415   3542      0   5036   7958      0    0.0  0.000      0      0  0.000  0.000  0.141  0.000   1.25   0.00   0.00      0      0     75.0   0.00   0.00   1.02   4.00   4.00   4.00   4.00   4.00   4.00   4.00   0.00   0.00   0.00      0      0      0       0     741
 2010 336   108   105   21.0      3   3.31   4478   3725      0   5116   8203      0    0.0  0.000      0      0  0.000  0.000  0.141  0.000   1.23   0.00   0.00      0      0     74.0   0.00   0.00   1.03   4.00   4.00   4.00   4.00   4.00   4.00   4.00   0.00   0.00   0.00      0      0      0       0     766
 2010 337   109   106   21.0      4   3.25   4433   3164      0   5182   8372      0    0.0  0.000    775      0  0.000  0.000  0.143  0.000   1.34   0.00   0.09      0    775     73.4   0.00   0.00   1.05   4.00   4.00   4.00   4.00   4.00   4.00   4.00   0.00   0.00   0.00      0      0      0       0     792
 2010 338   110   107   21.0      4   3.19   4384   3215      0   5294   8503      0    0.0  0.000    903      0  0.000  0.000  0.145  0.000   1.35   0.00   0.11      0    903     72.9   0.00   0.00   1.06   4.00   4.00   4.00   4.00   4.00   4.00   4.00   0.00   0.00   0.00      0      0      0       0     818
 2010 339   111   108   21.0      4   3.15   4333   3279      0   5420   8674      0    0.0  0.000   1062      0  0.000  0.000  0.112  0.000   1.35   0.00   0.12      0   1062     72.7   0.00   0.00   1.07   4.00   4.00   4.00   4.00   4.00   4.00   4.00   0.00   0.00   0.00      0      0      0       0     844
 2010 340   112   109   21.0      4   3.11   4279   3336      0   5551   8819      0    0.0  0.000   1205      0  0.000  0.000  0.105  0.000   1.36   0.00   0.14      0   1205     72.6   0.00   0.00   1.09   4.00   4.00   4.00   4.00   4.00   4.00   4.00   0.00   0.00   0.00      0      0      0       0     871
 2010 341   113   110   21.0      4   3.07   4222   3393      0   5684   8963      0    0.0  0.000   1348      0  0.000  0.000  0.100  0.000   1.37   0.00   0.15      0   1348     72.7   0.00   0.00   1.09   4.00   4.00   4.00   4.00   4.00   4.00   4.00   0.11   0.00   0.00      0      0      0       0     899
 2010 342   114   111   21.0      4   3.03   4163   3450      0   5724   9101      0    0.0  0.000   1489      0  0.000  0.000  0.095  0.000   1.38   0.00   0.16      0   1489     72.9   0.00   0.00   1.10   4.00   4.00   4.00   4.00   4.00   4.00   4.00   0.19   0.00   0.00      0      0      0       0     927
 2010 343   115   112   21.0      4   3.00   4099   3536      0   5814   9339      0    0.0  0.000   1704      0  0.000  0.000  0.088  0.000   1.38   0.00   0.18      0   1704     73.2   0.00   0.00   1.12   4.00   4.00   4.00   4.00   4.00   4.00   4.00   0.37   0.00   0.00      0      0      0       0     956
 2010 344   116   113   21.0      4   2.97   4033   3604      0   5870   9512      0    0.0  0.000   1875      0  0.000  0.000  0.081  0.000   1.39   0.00   0.20      0   1875     73.6   0.00   0.00   1.13   4.00   4.00   4.00   4.00   4.00   4.00   4.00   0.52   0.00   0.00      0      0      0       0     985
 2010 345   117   114   21.0      4   2.94   3963   3680      0   5852   9709      0    0.0  0.000   2066      0  0.000  0.000  0.076  0.000   1.40   0.00   0.21      0   2066     74.2   0.00   0.00   1.14   4.00   4.00   4.00   3.99   3.99   3.99   3.99   0.55   0.00   0.00      0      0      0       0    1014
 2010 346   118   115   21.0      4   2.91   3892   3715      0   5843   9761      0    0.0  0.000   2153      0  0.000  0.000  0.072  0.000   1.42   0.00   0.22      0   2153     74.9   0.00   0.00   1.14   4.00   4.00   4.00   4.00   3.99   3.99   3.98   0.58   0.00   0.00      0      0      0       0    1044
 2010 347   119   116   21.0      4   2.73   3819   3755      0   6022   9827      0    0.0  0.000   2253      0  0.000  0.000  0.069  0.000   1.43   0.00   0.23      0   2253     71.5   0.00   0.00   1.15   4.00   4.00   4.00   4.00   4.00   4.00   4.00   1.00   0.00   0.00      0      0      0       0    1073
 2010 348   120   117   21.0      4   2.71   3744   3810      0   6166   9943      0    0.0  0.000   2389      0  0.000  0.000  0.064  0.000   1.44   0.00   0.24      0   2389     72.4   0.00   0.00   1.15   4.00   4.00   4.00   4.00   4.00   4.00   4.00   1.35   0.00   0.00      0      0      0       0    1103
 2010 349   121   118   21.0      4   2.69   3666   3887      0   6265  10134      0    0.0  0.000   2582      0  0.000  0.000  0.058  0.000   1.45   0.00   0.25      0   2582     73.4   0.00   0.00   1.16   4.00   4.00   4.00   4.00   4.00   4.00   4.00   1.62   0.00   0.00      0      0      0       0    1134
 2010 350   122   119   21.0      5   2.66   3666   3887    278   6294  10412   3502    7.9  0.027   2860      7  0.000  0.000  0.102  0.000   1.40   9.73   0.27      0   2860     72.5   0.00   0.00   1.17   4.00   4.00   4.00   4.00   4.00   4.00   4.00   1.73   0.00   0.00      0      0      0       0    1165
 2010 351   123   120   21.0      5   2.62   3666   3887    541   6324  10675   3502   15.4  0.051   3122      7  0.000  0.000  0.112  0.000   1.37  17.32   0.29      0   3122     71.4   0.00   0.00   1.19   4.00   4.00   4.00   4.00   4.00   4.00   4.00   1.86   0.00   0.00      0      0      0       0    1197
 2010 352   124   121   21.0      5   2.58   3666   3887    803   6313  10937   3502   22.9  0.073   3385      7  0.000  0.000  0.116  0.000   1.33  23.73   0.31      0   3385     70.4   0.00   0.00   1.20   4.00   4.00   4.00   4.00   4.00   4.00   3.99   1.89   0.00   0.00      0      0      0       0    1228
 2010 353   125   122   21.0      5   2.54   3666   3812   1028   6282  11087   3502   29.3  0.093   3609      7  0.000  0.000  0.123  0.023   1.31  28.47   0.33      0   3609     69.3   0.00   0.00   1.20   4.00   4.00   4.00   4.00   4.00   4.00   3.99   1.89   0.00   0.00      0      0      0       0    1260
 2010 354   126   123   21.0      5   2.50   3666   3825   1290   6257  11362   3502   36.8  0.114   3872      7  0.000  0.000  0.126  0.000   1.27  33.32   0.34      0   3872     68.2   0.00   0.00   1.21   4.00   4.00   4.00   3.99   3.99   3.98   3.98   1.89   0.00   0.00      0      0      0       0    1291
 2010 355   127   124   21.0      5   2.46   3666   3887   1553   6275  11687   3502   44.3  0.133   4134      7  0.000  0.000  0.128  0.000   1.22  37.56   0.35      0   4134     67.1   0.00   0.00   1.22   4.00   4.00   4.00   4.00   4.00   4.00   3.99   1.96   0.00   0.00      0      0      0       0    1322
 2010 356   128   125   21.0      5   2.42   3666   3887   1815   6302  11950   3502   51.8  0.152   4397      7  0.000  0.000  0.133  0.000   1.18  41.29   0.37      0   4397     66.0   0.00   0.00   1.23   4.00   4.00   4.00   4.00   4.00   4.00   4.00   2.04   0.00   0.00      0      0      0       0    1354
 2010 357   129   126   21.0      5   2.38   3666   3887   2078   6327  12212   3502   59.3  0.170   4660      7  0.000  0.000  0.143  0.000   1.15  44.60   0.38      0   4660     64.8   0.00   0.00   1.24   4.00   4.00   4.00   4.00   4.00   4.00   4.00   2.10   0.00   0.00      0      0      0       0    1385
 2010 358   130   127   21.0      5   2.33   3666   3767   2341   6295  12355   3502   66.8  0.189   4922      7  0.000  0.000  0.149  0.000   1.13  47.55   0.40      0   4922     63.6   0.00   0.00   1.24   4.00   4.00   4.00   4.00   4.00   4.00   4.00   2.10   0.00   0.00      0      0      0       0    1417
 2010 359   131   128   21.0      5   2.29   3666   3862   2603   6311  12712   3502   74.3  0.205   5185      7  0.000  0.000  0.155  0.000   1.08  50.21   0.41      0   5185     62.4   0.00   0.00   1.25   4.00   4.00   4.00   4.00   4.00   4.00   4.00   2.12   0.00   0.00      0      0      0       0    1448
 2010 360   132   129   21.0      5   2.24   3666   3887   2866   6333  13000   3502   81.8  0.220   5448      7  0.000  0.000  0.156  0.000   1.04  52.61   0.42      0   5448     61.2   0.00   0.00   1.25   4.00   4.00   4.00   4.00   4.00   4.00   4.00   2.13   0.00   0.00      0      0      0       0    1480
 2010 361   133   130   21.0      5   2.20   3666   3887   3129   6349  13263   3502   89.3  0.236   5710      7  0.000  0.000  0.168  0.000   1.00  54.79   0.43      0   5710     59.9   0.00   0.00   1.25   4.00   4.00   4.00   4.00   4.00   4.00   4.00   2.14   0.00   0.00      0      0      0       0    1512
 2010 362   134   131   21.0      5   2.15   3666   3887   3387   6366  13521   3502   96.7  0.251   5969      7  0.000  0.000  0.177  0.000   0.97  56.75   0.44      0   5969     58.6   0.00   0.00   1.25   4.00   4.00   4.00   4.00   4.00   4.00   4.00   2.15   0.00   0.00      0      0      0       0    1543
 2010 363   135   132   21.0      5   2.10   3666   3887   3650   6363  13784   3502  104.2  0.265   6231      7  0.000  0.000  0.183  0.000   0.94  58.57   0.45      0   6231     57.2   0.00   0.00   1.25   4.00   4.00   4.00   4.00   4.00   4.00   4.00   2.15   0.00   0.00      0      0      0       0    1575
 2010 364   136   133   21.0      5   2.05   3666   3887   3902   6379  14036   3502  111.4  0.278   6483      7  0.000  0.000  0.191  0.000   0.92  60.18   0.46      0   6483     55.9   0.00   0.00   1.25   4.00   4.00   4.00   4.00   4.00   4.00   4.00   2.16   0.00   0.00      0      0      0       0    1607
 2010 365   137   134   21.0      5   2.00   3666   3887   4164   6388  14298   3502  118.9  0.291   6746      7  0.000  0.000  0.197  0.000   0.89  61.73   0.47      0   6746     54.5   0.00   0.00   1.25   4.00   4.00   4.00   4.00   4.00   4.00   4.00   2.16   0.00   0.00      0      0      0       0    1639
 2011 001   138   135   21.0      5   1.95   3666   3887   4427   6361  14561   3502  126.4  0.304   7008      7  0.000  0.000  0.216  0.000   0.86  63.17   0.48      0   7008     53.1   0.00   0.00   1.25   4.00   4.00   4.00   3.99   3.99   3.99   3.98   2.15   0.00   0.00      0      0      0       0    1671
 2011 002   139   136   21.0      5   1.89   3666   3837   4690   6330  14774   3502  133.9  0.317   7271      7  0.000  0.000  0.239  0.000   0.83  64.50   0.49      0   7271     51.7   0.00   0.00   1.25   4.00   4.00   4.00   3.99   3.99   3.99   3.98   2.15   0.00   0.00      0      0      0       0    1703
 2011 003   140   137   21.0      5   1.84   3666   3713   4927   6298  14887   3502  140.7  0.331   7508      7  0.000  0.000  0.267  0.000   0.82  65.62   0.50      0   7508     50.2   0.00   0.00   1.25   4.00   4.00   4.00   3.99   3.99   3.99   3.98   2.15   0.00   0.00      0      0      0       0    1734
 2011 004   141   138   21.0      5   1.79   3666   3642   5189   6266  15078   3502  148.2  0.344   7771      7  0.000  0.000  0.278  0.000   0.80  66.78   0.52      0   7771     48.8   0.00   0.00   1.25   4.00   4.00   4.00   3.99   3.99   3.99   3.98   2.15   0.00   0.00      0      0      0       0    1766
 2011 005   142   139   21.0      5   1.74   3666   3557   5452   6235  15256   3502  155.7  0.357   8033      7  0.000  0.000  0.284  0.000   0.78  67.86   0.53      0   8033     47.4   0.00   0.00   1.25   4.00   4.00   4.00   3.99   3.99   3.99   3.98   2.15   0.00   0.00      0      0      0       0    1797
 2011 006   143   140   21.0      5   1.69   3666   3599   5714   6225  15561   3502  163.2  0.367   8296      7  0.000  0.000  0.299  0.000   0.75  68.88   0.53      0   8296     46.1   0.00   0.00   1.25   4.00   4.00   4.00   4.00   3.99   3.99   3.98   2.15   0.00   0.00      0      0      0       0    1828
 2011 007   144   141   21.0      5   1.64   3666   3634   5977   6212  15858   3502  170.7  0.377   8559      7  0.000  0.000  0.309  0.000   0.72  69.84   0.54      0   8559     44.7   0.00   0.00   1.25   4.00   4.00   4.00   4.00   4.00   3.99   3.97   2.15   0.00   0.00      0      0      0       0    1859
 2011 008   145   142   21.0      5   1.59   3666   3623   6240   6180  16110   3502  178.2  0.387   8821      7  0.000  0.000  0.351  0.000   0.70  70.74   0.55      0   8821     43.3   0.00   0.00   1.25   4.00   4.00   4.00   4.00   4.00   3.99   3.97   2.15   0.00   0.00      0      0      0       0    1891
 2011 009   146   143   21.0      5   1.54   3666   3605   6502   6150  16354   3502  185.7  0.398   9084      7  0.000  0.000  0.383  0.000   0.67  71.58   0.56      0   9084     41.9   0.00   0.00   1.25   4.00   4.00   4.00   4.00   4.00   3.99   3.97   2.15   0.00   0.00      0      0      0       0    1921
 2011 010   147   144   21.0      5   1.48   3666   3458   6765   6119  16471   3502  193.2  0.411   9347      7  0.000  0.000  0.411  0.000   0.66  72.38   0.57      0   9347     40.5   0.00   0.00   1.25   4.00   4.00   4.00   4.00   4.00   3.99   3.97   2.15   0.00   0.00      0      0      0       0    1952
 2011 011   148   145   21.0      5   1.43   3666   3309   7028   6088  16584   3502  200.7  0.424   9609      7  0.000  0.000  0.437  0.000   0.66  73.13   0.58      0   9609     39.1   0.00   0.00   1.25   4.00   4.00   4.00   4.00   4.00   3.99   3.97   2.15   0.00   0.00      0      0      0       0    1983
 2011 012   149   146   21.0      5   1.38   3666   3203   7290   6058  16741   3502  208.2  0.435   9872      7  0.000  0.000  0.443  0.029   0.64  73.85   0.59      0   9872     37.7   0.00   0.00   1.25   4.00   4.00   4.00   4.00   4.00   3.99   3.97   2.15   0.00   0.00      0      0      0       0    2013
 2011 013   150   147   21.0      5   1.33   3666   3160   7553   6028  16960   3502  215.7  0.445  10134      7  0.000  0.000  0.445  0.002   0.62  74.53   0.60      0  10134     36.4   0.00   0.00   1.25   4.00   4.00   4.00   4.00   4.00   3.99   3.97   2.15   0.00   0.00      0      0      0       0    2043
 2011 014   151   148   21.0      5   1.28   3666   3124   7816   5997  17187   3502  223.2  0.455  10397      7  0.000  0.000  0.463  0.000   0.61  75.17   0.60      0  10397     35.0   0.00   0.00   1.25   4.00   4.00   4.00   4.00   4.00   3.99   3.97   2.15   0.00   0.00      0      0      0       0    2074
 2011 015   152   149   21.0      5   1.24   3666   3087   8078   5967  17412   3502  230.7  0.464  10660      7  0.000  0.000  0.484  0.000   0.59  75.78   0.61      0  10660     33.8   0.00   0.00   1.25   4.00   4.00   4.00   4.00   4.00   3.99   3.97   2.15   0.00   0.00      0      0      0       0    2104
 2011 016   153   150   21.0      5   1.19   3666   2959   8341   5938  17547   3502  238.2  0.475  10922      7  0.000  0.000  0.509  0.000   0.58  76.36   0.62      0  10922     32.5   0.00   0.00   1.25   4.00   4.00   4.00   4.00   4.00   3.99   3.97   2.15   0.00   0.00      0      0      0       0    2133
 2011 017   154   151   21.0      5   1.14   3666   2840   8603   5908  17691   3502  245.7  0.486  11185      7  0.000  0.000  0.535  0.000   0.58  76.92   0.63      0  11185     31.2   0.00   0.00   1.25   4.00   4.00   4.00   4.00   4.00   3.99   3.97   2.15   0.00   0.00      0      0      0       0    2163
 2011 018   155   152   21.0      5   1.14   3666   2840   8603   5908  17691   3502  245.7  0.486  11185      7  0.000  0.000  0.535  0.000   0.58  76.92   0.63      0  11185     31.2   0.00   0.00   1.25   4.00   4.00   4.00   4.00   4.00   3.99   3.97   2.15   0.00   0.00      0      0      0       0    2163
 2011 019   156   153   21.0      5   1.14   3666   2840   8603   5908  17691   3502  245.7  0.486  11185      7  0.000  0.000  0.535  0.000   0.58  76.92   0.63      0  11185     31.2   0.00   0.00   1.25   4.00   4.00   4.00   4.00   4.00   3.99   3.97   2.15   0.00   0.00      0      0      0       0    2163
 2011 020   157   154   21.0      5   1.14   3666   2840   8603   5908  17691   3502  245.7  0.486  11185      7  0.000  0.000  0.535  0.000   0.58  76.92   0.63      0  11185     31.2   0.00   0.00   1.25   4.00   4.00   4.00   4.00   4.00   3.99   3.97   2.15   0.00   0.00      0      0      0       0    2163
