*SOIL NITROGEN DAILY OUTPUT FILE

*DSSAT Cropping System Model Ver. 4.0.2.000               Aug 19, 2016; 14:33:09

*RUN   1        : UYMZ                    
 MODEL          : MZCER040 - Maize           
 EXPERIMENT     : UYMZ0218 MZ    late to create DSS                             
 TREATMENT  1   : UYMZ                    

@YEAR DOY   DAS  NAPC  NI#M    NLCC   NIAD    NOAD   NITD   NHTD  NI1D  NI2D  NI3D  NI4D  NI5D  NI6D  NI7D  NI8D  NI9D  NI10  NH1D  NH2D  NH3D  NH4D  NH5D  NH6D  NH7D  NH8D  NH9D  NH10    NMNC    NITC    NDNC    NIMC    AMLC
 2000 228     0     0     0     0.0   99.2   16646   76.2   23.0  15.8  15.2  15.1   8.6   4.6   0.0   0.1   0.1   0.0   0.0   0.7   1.4   1.5   1.4   1.5  1.50  1.47  1.46  0.00  0.00    0.45    1.44    0.00    0.00    0.00
 2000 229     1     0     0     0.0   99.7   16645   77.4   22.2  16.2  15.4  15.2   8.7   4.6   0.0   0.1   0.1   0.0   0.0   0.4   1.2   1.4   1.4   1.4  1.51  1.43  1.41  0.00  0.00    0.91    2.62    0.00    0.00    0.00
 2000 230     2     0     0     0.0  100.2   16645   78.5   21.6  16.5  15.6  15.3   8.7   4.7   0.1   0.1   0.2   0.0   0.0   0.2   1.1   1.4   1.4   1.4  1.51  1.40  1.37  0.00  0.00    1.39    3.69    0.00    0.00    0.00
 2000 231     3     0     0     0.0  100.6   16644   79.5   21.1   5.7  16.1  18.9   8.8   4.7   0.1   0.2   0.2   0.0   0.0   0.2   1.0   1.4   1.3   1.3  1.51  1.37  1.33  0.00  0.00    1.88    4.70    0.00    0.00    0.00
 2000 232     4     0     0     0.0  101.2   16644   80.3   20.8   5.8  15.6  19.3   8.9   4.8   0.1   0.2   0.2   0.0   0.0   0.1   1.1   1.4   1.3   1.3  1.51  1.34  1.29  0.00  0.00    2.40    5.53    0.00    0.00    0.00
 2000 233     5     0     0     0.0  101.7   16643   81.4   20.3   5.7  15.8  19.4   9.1   4.9   0.1   0.3   0.3   0.0   0.0   0.1   1.0   1.4   1.2   1.2  1.52  1.31  1.25  0.00  0.00    2.98    6.59    0.00    0.00    0.00
 2000 234     6     0     0     0.0  102.3   16642   82.4   19.9   4.9  16.0  19.8   9.2   4.9   0.1   0.3   0.3   0.0   0.0   0.2   0.9   1.3   1.2   1.2  1.52  1.28  1.21  0.00  0.00    3.57    7.57    0.00    0.00    0.00
 2000 235     7     0     0     0.0  102.9   16642   83.3   19.7   5.1  15.6  20.1   9.4   5.0   0.1   0.3   0.4   0.0   0.0   0.1   1.0   1.3   1.1   1.2  1.52  1.25  1.17  0.00  0.00    4.18    8.48    0.00    0.00    0.00
 2000 236     8     0     0     0.0  103.6   16641   84.4   19.2   4.7  15.8  20.3   9.6   5.0   0.2   0.4   0.4   0.0   0.0   0.1   0.8   1.3   1.1   1.1  1.53  1.22  1.14  0.00  0.00    4.82    9.56    0.00    0.00    0.00
 2000 237     9     0     0     0.0  104.2   16641   85.2   19.0   2.9  12.8  21.1  11.4   5.1   0.2   0.4   0.5   0.0   0.0   0.1   0.9   1.3   1.1   1.1  1.53  1.19  1.10  0.00  0.00    5.47   10.44    0.00    0.00    0.00
 2000 238    10     0     0     0.0  104.8   16640   85.8   19.0   3.0  12.7  20.5  12.1   5.2   0.2   0.5   0.5   0.0   0.0   0.2   1.0   1.4   1.0   1.1  1.53  1.17  1.07  0.00  0.00    6.08   11.03    0.00    0.00    0.00
 2000 239    11     0     0     0.0  105.4   16639   86.5   18.9   3.1  12.6  20.2  12.5   5.2   0.2   0.5   0.5   0.0   0.0   0.1   1.1   1.5   1.0   1.0  1.53  1.14  1.04  0.00  0.00    6.68   11.70    0.00    0.00    0.00
 2000 240    12     0     0     0.0  106.0   16639   87.3   18.7   3.5  12.7  20.1  12.6   5.3   0.2   0.5   0.6   0.0   0.0   0.1   1.0   1.5   1.0   1.0  1.54  1.12  1.01  0.00  0.00    7.25   12.50    0.00    0.00    0.00
 2000 241    13     0     0     0.0  106.4   16638   88.0   18.4   3.9  12.5  20.2  12.7   5.4   0.3   0.6   0.6   0.0   0.0   0.1   0.9   1.5   0.9   1.0  1.54  1.09  0.98  0.00  0.00    7.78   13.38    0.00    0.00    0.00
 2000 242    14     0     0     0.0  106.8   16638   88.8   18.0   4.3  12.5  20.3  12.7   5.5   0.3   0.6   0.6   0.0   0.0   0.1   0.8   1.5   0.9   1.0  1.54  1.07  0.95  0.00  0.00    8.27   14.17    0.00    0.00    0.00
 2000 243    15     0     0     0.0  107.3   16637   89.5   17.8   4.7  12.5  20.4  12.8   5.5   0.3   0.6   0.7   0.0   0.0   0.1   0.8   1.4   0.9   0.9  1.54  1.05  0.92  0.00  0.00    8.74   14.92    0.00    0.00    0.00
 2000 244    16     0     0     0.0  107.8   16637   90.3   17.5   5.0  12.5  20.5  12.8   5.6   0.3   0.7   0.7   0.0   0.0   0.1   0.7   1.4   0.9   0.9  1.55  1.03  0.90  0.00  0.00    9.22   15.66    0.00    0.00    0.00
 2000 245    17     0     0     0.0  108.3   16636   91.0   17.3   5.3  12.5  20.6  12.8   5.7   0.3   0.7   0.7   0.0   0.0   0.1   0.7   1.4   0.9   0.9  1.55  1.01  0.87  0.00  0.00    9.70   16.38    0.00    0.00    0.00
 2000 246    18     0     0     0.0  108.7   16636   91.7   17.0   5.6  12.5  20.7  12.9   5.7   0.3   0.7   0.7   0.0   0.0   0.1   0.7   1.4   0.8   0.9  1.55  0.99  0.85  0.00  0.00   10.16   17.06    0.00    0.00    0.00
 2000 247    19     0     0     0.0  109.2   16635   92.4   16.8   5.9  12.5  20.8  12.9   5.8   0.3   0.8   0.8   0.0   0.0   0.1   0.6   1.4   0.8   0.9  1.55  0.97  0.82  0.00  0.00   10.63   17.75    0.00    0.00    0.00
 2000 248    20     0     0     0.0  109.7   16635   93.0   16.6   6.2  12.5  20.9  12.9   5.8   0.4   0.8   0.8   0.0   0.0   0.1   0.6   1.3   0.8   0.8  1.55  0.95  0.80  0.00  0.00   11.10   18.42    0.00    0.00    0.00
 2000 249    21     0     0     0.0  110.1   16634   93.7   16.4   6.4  12.5  20.9  13.0   5.9   0.4   0.8   0.8   0.0   0.0   0.1   0.6   1.3   0.8   0.8  1.56  0.94  0.78  0.00  0.00   11.57   19.07    0.00    0.00    0.00
 2000 250    22     0     0     0.0  110.6   16634   94.4   16.3   6.7  12.6  21.0  13.0   5.9   0.4   0.8   0.9   0.0   0.0   0.1   0.6   1.3   0.8   0.8  1.56  0.92  0.76  0.00  0.00   12.06   19.74    0.00    0.00    0.00
 2000 251    23     0     0     0.0  111.1   16633   95.0   16.1   7.0  12.6  21.1  13.0   6.0   0.4   0.9   0.9   0.0   0.0   0.1   0.6   1.3   0.8   0.8  1.56  0.90  0.74  0.00  0.00   12.58   20.44    0.00    0.00    0.00
 2000 252    24     0     0     0.0  111.7   16633   95.8   15.9   7.2  12.6  21.2  13.1   6.0   0.4   0.9   0.9   0.0   0.0   0.1   0.5   1.3   0.8   0.8  1.56  0.89  0.72  0.00  0.00   13.15   21.18    0.00    0.00    0.00
 2000 253    25     0     0     0.0  112.3   16632   96.6   15.8   5.9  13.4  21.3  13.1   6.1   0.5   0.9   0.9   0.0   0.0   0.1   0.5   1.3   0.7   0.8  1.57  0.87  0.70  0.00  0.00   13.78   21.97    0.00    0.00    0.00
 2000 254    26     0     0     0.0  112.9   16632   97.2   15.8   2.3   8.5  18.3  14.4   9.3   1.5   1.0   1.0   0.0   0.0   0.2   0.6   1.3   0.7   0.8  1.57  0.85  0.68  0.00  0.00   14.41   22.61    0.00    0.00    0.00
 2000 255    27     0     0     0.4  113.2   16631   97.1   16.1   2.5   8.4  17.8  14.0   9.3   1.8   1.1   1.0   0.0   0.0   0.1   0.7   1.3   0.8   0.8  1.59  0.86  0.67  0.00  0.00   15.05   22.86    0.00    0.00    0.00
 2000 256    28     0     0     0.6  113.6   16630   97.2   16.4   2.8   8.5  17.6  13.7   9.3   2.0   1.1   1.0   0.0   0.0   0.1   0.7   1.4   0.8   0.8  1.60  0.86  0.67  0.00  0.00   15.71   23.25    0.00    0.00    0.00
 2000 257    29     0     0     0.6  114.1   16630   97.4   16.6   1.8   7.1  16.6  14.0  10.1   2.3   1.2   1.0   0.0   0.0   0.1   0.6   1.5   0.8   0.8  1.62  0.86  0.67  0.00  0.00   16.32   23.62    0.00    0.00    0.00
 2000 258    30     0     0     0.7  114.4   16629   97.4   17.0   1.3   6.1  15.4  13.7  10.6   3.0   1.4   1.1   0.0   0.0   0.2   0.7   1.6   0.8   0.9  1.63  0.87  0.66  0.00  0.00   16.84   23.75    0.00    0.00    0.00
 2000 259    31     0     0     1.2  114.0   16629   96.6   17.4   1.3   6.0  14.9  13.2  10.4   3.2   1.6   1.1   0.0   0.0   0.2   0.8   1.6   0.9   0.9  1.65  0.87  0.66  0.00  0.00   17.30   23.86    0.44    0.00    0.00
 2000 260    32     0     0     1.5  113.8   16628   96.2   17.6   1.5   6.0  14.6  12.9  10.3   3.3   1.7   1.2   0.0   0.0   0.2   0.8   1.7   0.9   0.9  1.66  0.88  0.66  0.00  0.00   17.72   24.06    0.69    0.00    0.00
 2000 261    33     0     0     1.7  113.7   16628   96.0   17.7   1.7   6.0  14.5  12.7  10.2   3.4   1.7   1.2   0.0   0.0   0.1   0.8   1.7   0.9   0.9  1.68  0.88  0.66  0.00  0.00   18.12   24.35    0.84    0.00    0.00
 2000 262    34     0     0     1.7  113.8   16628   96.0   17.8   1.2   5.2  14.0  13.1  10.6   3.5   1.8   1.2   0.0   0.0   0.1   0.7   1.8   0.9   0.9  1.69  0.89  0.65  0.00  0.00   18.53   24.64    0.90    0.00    0.00
 2000 263    35     0     0     2.5  113.1   16627   95.0   18.1   0.6   3.5  11.0  11.6  10.9   4.9   2.6   1.6   0.0   0.0   0.2   0.8   1.8   0.9   0.9  1.70  0.89  0.65  0.00  0.00   18.99   24.78    1.21    0.00    0.00
 2000 264    36     0     0     2.8  112.6   16627   94.2   18.4   0.6   3.3  10.4  11.3  10.8   5.0   2.7   1.6   0.0   0.0   0.1   0.8   1.9   1.0   1.0  1.72  0.89  0.65  0.00  0.00   19.49   24.96    1.63    0.00    0.00
 2000 265    37     0     0     3.5  111.6   16626   92.8   18.8   0.6   3.2  10.0  10.8  10.5   5.1   2.9   1.7   0.0   0.0   0.2   0.9   1.9   1.0   1.0  1.74  0.90  0.65  0.00  0.00   20.03   25.10    2.06    0.00    0.00
 2000 266    38     0     0     4.0  111.2   16625   92.2   19.0   0.8   3.1   9.7  10.6  10.3   5.1   3.0   1.8   0.0   0.0   0.1   0.9   2.0   1.0   1.0  1.75  0.91  0.65  0.00  0.00   20.58   25.36    2.30    0.00    0.00
 2000 267    39     0     0     4.1  111.0   16625   91.9   19.1   0.9   3.2   9.5  10.5  10.3   5.2   3.0   1.8   0.0   0.0   0.1   0.9   2.0   1.0   1.0  1.77  0.91  0.65  0.00  0.00   21.13   25.79    2.44    0.00    0.00
 2000 268    40     0     0     4.3  110.9   16624   92.0   19.0   1.1   3.3   9.5  10.4  10.2   5.2   3.0   1.9   0.0   0.0   0.1   0.8   1.9   1.1   1.0  1.78  0.91  0.65  0.00  0.00   21.69   26.42    2.52    0.00    0.00
 2000 269    41     0     0     4.5  110.6   16624   91.7   18.9   1.3   3.3   9.3  10.4  10.2   5.2   3.0   1.9   0.0   0.0   0.1   0.7   1.8   1.1   1.0  1.79  0.91  0.64  0.00  0.00   22.22   26.99    2.57    0.00    0.00
 2000 270    42     0     0     4.5  110.8   16623   91.9   18.8   1.4   3.4   9.3  10.4  10.1   5.2   3.0   1.9   0.0   0.0   0.1   0.7   1.7   1.1   1.1  1.81  0.92  0.64  0.00  0.00   22.71   27.50    2.59    0.00    0.00
 2000 271    43     0     0     4.5  111.1   16623   92.3   18.8   1.5   3.5   9.4  10.4  10.1   5.2   3.0   1.9   0.0   0.0   0.1   0.7   1.7   1.1   1.1  1.82  0.92  0.64  0.00  0.00   23.18   27.99    2.61    0.00    0.00
 2000 272    44     0     0     4.5  111.4   16622   92.7   18.7   1.7   3.6   9.4  10.5  10.2   5.2   3.1   1.9   0.0   0.0   0.1   0.6   1.6   1.1   1.1  1.83  0.92  0.63  0.00  0.00   23.68   28.57    2.62    0.00    0.00
 2000 273    45     0     0     4.5  111.3   16622   92.7   18.6   1.8   3.6   9.3  10.5  10.2   5.2   3.1   1.9   0.0   0.0   0.1   0.6   1.6   1.0   1.1  1.84  0.92  0.63  0.00  0.00   24.21   29.17    2.64    0.00    0.00
 2000 274    46     0     0     4.5  111.0   16621   92.6   18.4   1.4   3.7   9.1  10.6  10.2   5.2   3.1   1.9   0.0   0.0   0.1   0.6   1.5   1.0   1.1  1.86  0.92  0.63  0.00  0.00   24.79   29.82    2.65    0.00    0.00
 2000 275    47     0     0     4.5  110.6   16621   92.2   18.4   1.4   3.6   8.9  10.6  10.2   5.2   3.1   1.9   0.0   0.0   0.1   0.7   1.4   1.0   1.1  1.87  0.93  0.62  0.00  0.00   25.44   30.40    2.67    0.00    0.00
 2000 276    48     0     0     4.6  110.0   16620   91.8   18.2   0.8   2.8   7.7  10.3  10.8   5.6   3.3   2.0   0.0   0.0   0.1   0.6   1.3   0.9   1.1  1.89  0.93  0.62  0.00  0.00   26.13   31.17    2.68    0.00    0.00
 2000 277    49     0     0     4.7  109.5   16619   90.9   18.7   0.6   2.4   6.9   9.7  10.6   6.0   3.5   2.1   0.0   0.0   0.2   0.7   1.4   1.0   1.2  1.90  0.93  0.62  0.00  0.00   26.80   31.34    2.83    0.00    0.00
 2000 278    50     0     0     5.6  108.0   16619   89.1   18.9   0.7   2.3   6.4   9.2  10.2   6.0   3.7   2.2   0.0   0.0   0.1   0.8   1.4   1.0   1.2  1.92  0.94  0.61  0.00  0.00   27.43   31.61    3.03    0.00    0.00
 2000 279    51     0     0     6.1  106.3   16618   87.2   19.1   0.8   2.1   5.9   8.8  10.0   6.0   3.8   2.3   0.0   0.0   0.1   0.8   1.4   1.0   1.2  1.94  0.94  0.61  0.00  0.00   28.04   31.86    3.14    0.00    0.00
 2000 280    52     0     0     6.4  105.1   16617   86.2   19.0   0.9   2.1   5.6   8.5   9.9   6.0   3.8   2.4   0.0   0.0   0.1   0.7   1.4   1.0   1.2  1.95  0.94  0.61  0.00  0.00   28.61   32.43    3.21    0.00    0.00
 2000 281    53     0     0     6.5  104.2   16617   85.3   18.9   1.0   2.1   5.4   8.3   9.8   5.9   3.8   2.4   0.0   0.0   0.1   0.7   1.3   1.0   1.2  1.96  0.95  0.61  0.00  0.00   29.15   32.95    3.26    0.00    0.00
 2000 282    54     0     0     6.6  103.6   16616   84.8   18.8   1.1   2.1   5.1   8.1   9.8   5.9   3.8   2.4   0.0   0.0   0.1   0.6   1.2   1.0   1.2  1.98  0.95  0.60  0.00  0.00   29.71   33.46    3.28    0.00    0.00
 2000 283    55     0     0     6.6  102.2   16616   83.6   18.6   0.6   1.8   4.8   7.9   9.9   6.0   3.9   2.4   0.0   0.0   0.1   0.6   1.1   1.0   1.2  1.99  0.95  0.60  0.00  0.00   30.27   34.05    3.30    0.00    0.00
 2000 284    56     0     0     7.0  102.4   16615   83.4   18.9   0.7   1.8   4.7   7.7   9.7   6.1   3.9   2.5   0.0   0.0   0.1   0.7   1.2   1.0   1.3  2.00  0.95  0.60  0.00  0.00   30.82   34.27    3.33    0.00    0.00
 2000 285    57     0     0     7.1  100.4   16615   81.4   19.0   0.7   1.6   4.1   7.1   9.7   6.1   4.0   2.5   0.0   0.0   0.1   0.7   1.2   1.0   1.3  2.02  0.95  0.59  0.00  0.00   31.38   34.53    3.35    0.00    0.00
 2000 286    58     0     0     7.1   97.9   16614   79.3   18.6   0.8   1.4   3.4   6.6   9.7   6.1   4.0   2.5   0.0   0.0   0.1   0.6   1.1   0.9   1.3  2.03  0.95  0.59  0.00  0.00   31.96   35.14    3.36    0.00    0.00
 2000 287    59     0     0     7.1   96.0   16613   77.6   18.4   0.8   1.3   2.9   6.2   9.7   6.1   4.0   2.6   0.0   0.0   0.1   0.6   1.0   0.9   1.3  2.04  0.96  0.59  0.00  0.00   32.56   35.74    3.38    0.00    0.00
 2000 288    60     0     0     7.1   94.2   16613   76.0   18.2   0.8   1.2   2.5   5.9   9.5   6.1   4.0   2.6   0.0   0.0   0.1   0.6   0.9   0.8   1.3  2.05  0.96  0.58  0.00  0.00   33.16   36.31    3.40    0.00    0.00
 2000 289    61     0     0     7.1   94.1   16612   75.9   18.2   0.9   1.3   2.5   5.9   9.4   6.1   4.0   2.6   0.0   0.0   0.1   0.5   0.9   0.8   1.3  2.07  0.96  0.58  0.00  0.00   33.77   36.85    3.41    0.00    0.00
 2000 290    62     0     0     7.1   93.0   16612   74.9   18.1   0.8   1.3   2.3   5.7   9.2   6.1   4.0   2.6   0.0   0.0   0.1   0.5   0.9   0.8   1.3  2.08  0.96  0.58  0.00  0.00   34.38   37.40    3.42    0.00    0.00
 2000 291    63     0     0     7.1   91.1   16611   73.2   17.9   0.8   1.3   2.1   5.4   8.9   6.1   4.0   2.6   0.0   0.0   0.1   0.5   0.9   0.7   1.2  2.09  0.96  0.58  0.00  0.00   35.00   38.04    3.44    0.00    0.00
 2000 292    64     0     0     7.1   89.2   16610   71.5   17.7   0.8   1.2   1.8   5.1   8.5   6.1   4.0   2.6   0.0   0.0   0.1   0.5   0.8   0.7   1.1  2.11  0.96  0.57  0.00  0.00   35.59   38.63    3.45    0.00    0.00
 2000 293    65     0     0     7.1   87.3   16610   69.8   17.5   0.5   1.0   1.7   4.8   8.1   6.1   4.1   2.6   0.0   0.0   0.1   0.5   0.8   0.7   1.1  2.12  0.96  0.57  0.00  0.00   36.19   39.21    3.46    0.00    0.00
 2000 294    66     0     0     7.1   84.4   16609   66.8   17.6   0.4   0.9   1.3   4.4   7.4   6.1   4.1   2.6   0.0   0.0   0.2   0.6   0.8   0.7   1.0  2.13  0.97  0.57  0.00  0.00   36.79   39.54    3.47    0.00    0.00
 2000 295    67     0     0     7.1   82.5   16609   65.1   17.5   0.6   0.8   1.2   4.1   6.9   6.1   4.1   2.6   0.0   0.0   0.1   0.7   0.8   0.6   0.9  2.15  0.97  0.57  0.00  0.00   37.42   40.07    3.48    0.00    0.00
 2000 296    68     0     0     7.2   77.6   16608   60.6   17.0   0.1   0.4   0.6   2.7   5.6   6.5   4.4   2.7   0.0   0.0   0.1   0.6   0.7   0.6   0.8  2.16  0.97  0.56  0.00  0.00   38.07   40.72    3.49    0.00    0.00
 2000 297    69     0     0     7.4   76.0   16607   58.7   17.3   0.1   0.3   0.5   2.4   5.0   6.4   4.5   2.8   0.0   0.0   0.2   0.6   0.8   0.6   0.8  2.18  0.97  0.56  0.00  0.00   38.70   40.84    3.60    0.00    0.00
 2000 298    70     0     0     8.3   72.9   16607   55.4   17.5   0.2   0.3   0.3   1.9   4.1   6.2   4.6   3.0   0.0   0.0   0.3   0.7   0.8   0.6   0.8  2.19  0.98  0.56  0.00  0.00   39.33   40.99    3.70    0.00    0.00
 2000 299    71     0     0    11.0   68.4   16606   51.1   17.4   0.4   0.2   0.2   1.0   2.7   5.6   4.9   3.6   0.0   0.0   0.1   0.7   0.8   0.6   0.8  2.19  0.98  0.56  0.00  0.00   39.95   41.31    3.76    0.00    0.00
 2000 300    72     0     0    12.5   65.3   16606   47.9   17.4   0.1   0.2   0.2   0.7   2.0   5.2   5.0   3.8   0.0   0.0   0.2   0.7   0.8   0.7   0.8  2.17  0.99  0.56  0.00  0.00   40.56   41.43    3.89    0.00    0.00
 2000 301    73     0     0    14.2   61.2   16605   44.1   17.1   0.2   0.2   0.2   0.6   1.6   4.6   4.8   3.8   0.0   0.0   0.3   0.8   0.8   0.7   0.8  2.07  0.99  0.56  0.00  0.00   41.15   41.55    4.04    0.00    0.00
 2000 302    74     0     0    15.0   55.9   16604   40.0   15.9   0.5   0.3   0.3   0.4   1.3   3.8   4.7   3.8   0.0   0.0   0.1   0.7   0.7   0.6   0.7  1.87  1.00  0.56  0.00  0.00   41.78   41.87    4.12    0.00    0.00
 2000 303    75     0     0    15.3   51.2   16604   36.6   14.6   0.4   0.4   0.3   0.4   1.0   3.1   4.7   3.7   0.0   0.0   0.1   0.5   0.6   0.6   0.7  1.65  1.00  0.56  0.00  0.00   42.41   42.40    4.16    0.00    0.00
 2000 304    76     0     0    15.5   47.4   16603   33.8   13.6   0.4   0.4   0.3   0.3   0.8   2.6   4.6   3.7   0.0   0.0   0.1   0.5   0.6   0.6   0.6  1.46  1.00  0.56  0.00  0.00   43.04   42.91    4.17    0.00    0.00
 2000 305    77     0     0    15.6   44.4   16603   31.7   12.8   0.4   0.4   0.3   0.3   0.7   2.2   4.6   3.7   0.0   0.0   0.1   0.5   0.6   0.6   0.6  1.30  1.00  0.55  0.00  0.00   43.69   43.47    4.18    0.00    0.00
 2000 306    78     0     0    15.6   42.1   16602   30.0   12.2   0.3   0.4   0.3   0.3   0.6   1.8   4.6   3.7   0.0   0.0   0.1   0.5   0.6   0.5   0.6  1.16  1.00  0.55  0.00  0.00   44.35   44.03    4.18    0.00    0.00
 2000 307    79     0     0    15.6   40.3   16601   28.5   11.8   0.3   0.3   0.3   0.3   0.5   1.5   4.6   3.7   0.0   0.0   0.2   0.6   0.6   0.5   0.6  1.05  1.01  0.55  0.00  0.00   45.00   44.38    4.19    0.00    0.00
 2000 308    80     0     0    15.6   38.9   16601   27.4   11.5   0.3   0.3   0.3   0.3   0.4   1.2   4.6   3.7   0.0   0.0   0.3   0.6   0.6   0.5   0.5  0.96  1.01  0.55  0.00  0.00   45.67   44.77    4.19    0.00    0.00
 2000 309    81     0     0    15.6   37.7   16600   26.8   11.0   0.6   0.4   0.3   0.3   0.3   1.0   4.7   3.7   0.0   0.0   0.1   0.5   0.6   0.5   0.5  0.89  1.01  0.54  0.00  0.00   46.37   45.49    4.19    0.00    0.00
 2000 310    82     0     0    15.6   36.5   16599   25.8   10.7   0.3   0.4   0.3   0.3   0.3   0.9   4.7   3.7   0.0   0.0   0.1   0.5   0.6   0.5   0.5  0.83  1.01  0.54  0.00  0.00   47.04   46.00    4.20    0.00    0.00
 2000 311    83     0     0    15.6   35.8   16599   25.3   10.5   0.4   0.4   0.3   0.3   0.3   0.7   4.7   3.7   0.0   0.0   0.1   0.5   0.6   0.5   0.5  0.78  1.01  0.54  0.00  0.00   47.69   46.51    4.20    0.00    0.00
 2000 312    84     0     0    15.6   35.2   16598   24.9   10.3   0.4   0.4   0.3   0.3   0.3   0.6   4.7   3.7   0.0   0.0   0.1   0.5   0.6   0.5   0.5  0.74  1.01  0.54  0.00  0.00   48.35   47.03    4.20    0.00    0.00
 2000 313    85     0     0    15.6   34.7   16597   24.5   10.2   0.4   0.4   0.3   0.3   0.3   0.5   4.7   3.7   0.0   0.0   0.1   0.5   0.6   0.5   0.5  0.71  1.01  0.53  0.00  0.00   49.01   47.54    4.21    0.00    0.00
 2000 314    86     0     0    15.6   34.3   16597   24.2   10.0   0.4   0.4   0.3   0.3   0.3   0.4   4.7   3.8   0.0   0.0   0.1   0.5   0.6   0.5   0.5  0.68  1.01  0.53  0.00  0.00   49.67   48.05    4.21    0.00    0.00
 2000 315    87     0     0    15.6   33.9   16596   24.0    9.9   0.4   0.4   0.3   0.3   0.3   0.3   4.7   3.8   0.0   0.0   0.1   0.5   0.6   0.5   0.5  0.66  0.99  0.53  0.00  0.00   50.32   48.61    4.21    0.00    0.00
 2000 316    88     0     0    15.6   33.7   16595   23.9    9.8   0.2   0.4   0.4   0.3   0.3   0.3   4.8   3.8   0.0   0.0   0.1   0.5   0.6   0.5   0.5  0.64  0.97  0.53  0.00  0.00   50.96   49.17    4.21    0.00    0.00
 2000 317    89     0     0    15.6   33.5   16595   23.6    9.9   0.2   0.3   0.3   0.3   0.3   0.3   4.8   3.8   0.0   0.0   0.2   0.6   0.6   0.5   0.5  0.63  0.95  0.53  0.00  0.00   51.60   49.47    4.21    0.00    0.00
 2000 318    90     0     0    15.6   33.6   16594   23.9    9.7   0.5   0.3   0.3   0.3   0.3   0.3   4.8   3.8   0.0   0.0   0.1   0.6   0.6   0.5   0.5  0.62  0.94  0.52  0.00  0.00   52.26   50.00    4.21    0.00    0.00
 2000 319    91     0     0    15.6   33.5   16594   24.1    9.5   0.4   0.4   0.3   0.3   0.3   0.3   4.9   3.8   0.0   0.0   0.1   0.5   0.6   0.5   0.5  0.61  0.92  0.52  0.00  0.00   52.90   50.59    4.22    0.00    0.00
 2000 320    92     0     0    15.6   33.4   16593   24.1    9.4   0.4   0.4   0.3   0.3   0.3   0.3   4.9   3.8   0.0   0.0   0.1   0.5   0.6   0.5   0.5  0.60  0.90  0.52  0.00  0.00   53.52   51.12    4.22    0.00    0.00
 2000 321    93     0     0    15.6   33.4   16592   24.1    9.3   0.4   0.4   0.3   0.3   0.3   0.3   4.9   3.8   0.0   0.0   0.1   0.5   0.6   0.5   0.5  0.59  0.88  0.52  0.00  0.00   54.09   51.61    4.22    0.00    0.00
 2000 322    94     0     0    15.6   33.4   16592   24.2    9.2   0.4   0.4   0.3   0.3   0.3   0.3   4.9   3.8   0.0   0.0   0.1   0.5   0.6   0.5   0.5  0.58  0.87  0.52  0.00  0.00   54.65   52.09    4.22    0.00    0.00
 2000 323    95     0     0    15.6   33.3   16591   24.3    9.1   0.4   0.4   0.3   0.3   0.3   0.3   5.0   3.8   0.0   0.0   0.1   0.5   0.6   0.5   0.5  0.58  0.85  0.51  0.00  0.00   55.19   52.57    4.22    0.00    0.00
 2000 324    96     0     0    15.6   33.3   16591   24.4    9.0   0.4   0.4   0.3   0.3   0.3   0.3   5.0   3.8   0.0   0.0   0.1   0.5   0.6   0.5   0.5  0.57  0.84  0.51  0.00  0.00   55.74   53.08    4.22    0.00    0.00
 2000 325    97     0     0    15.6   33.4   16590   24.5    8.9   0.4   0.4   0.3   0.3   0.3   0.3   5.0   3.8   0.0   0.0   0.1   0.5   0.6   0.5   0.5  0.57  0.82  0.51  0.00  0.00   56.32   53.63    4.22    0.00    0.00
 2000 326    98     0     0    15.6   31.7   16590   23.1    8.7   0.4   0.4   0.3   0.3   0.3   0.3   4.4   3.8   0.0   0.0   0.1   0.4   0.6   0.5   0.5  0.56  0.77  0.51  0.00  0.00   56.90   54.21    4.23    0.00    0.00
 2000 327    99     0     0    15.6   30.2   16589   21.8    8.5   0.2   0.4   0.4   0.3   0.3   0.3   3.9   3.8   0.0   0.0   0.1   0.4   0.5   0.5   0.5  0.56  0.72  0.51  0.00  0.00   57.47   54.79    4.23    0.00    0.00
 2000 328   100     0     0    15.6   29.0   16588   20.4    8.6   0.1   0.2   0.3   0.3   0.3   0.3   3.4   3.8   0.0   0.0   0.2   0.5   0.6   0.5   0.5  0.56  0.68  0.50  0.00  0.00   58.15   55.17    4.23    0.00    0.00
 2000 329   101     0     0    15.6   28.1   16588   19.3    8.8   0.2   0.2   0.3   0.3   0.3   0.3   3.0   3.8   0.0   0.0   0.3   0.6   0.7   0.5   0.5  0.56  0.65  0.50  0.00  0.00   58.86   55.50    4.23    0.00    0.00
 2000 330   102     0     0    15.6   27.3   16587   18.8    8.5   0.6   0.4   0.3   0.3   0.3   0.3   2.6   3.8   0.0   0.0   0.1   0.5   0.7   0.5   0.4  0.55  0.62  0.50  0.00  0.00   59.54   56.18    4.23    0.00    0.00
 2000 331   103     0     0    15.6   26.3   16586   18.0    8.3   0.3   0.4   0.3   0.3   0.3   0.3   2.3   3.9   0.0   0.0   0.1   0.5   0.6   0.5   0.4  0.55  0.60  0.50  0.00  0.00   60.22   56.75    4.23    0.00    0.00
 2000 332   104     0     0    15.6   25.5   16586   17.4    8.1   0.4   0.4   0.3   0.3   0.3   0.3   2.0   3.9   0.0   0.0   0.1   0.5   0.6   0.5   0.4  0.55  0.58  0.49  0.00  0.00   60.91   57.38    4.23    0.00    0.00
 2000 333   105     0     0    15.6   24.9   16585   16.8    8.1   0.4   0.4   0.3   0.3   0.3   0.3   1.8   3.9   0.0   0.0   0.1   0.5   0.6   0.5   0.4  0.55  0.56  0.47  0.00  0.00   61.58   57.97    4.23    0.00    0.00
 2000 334   106     0     0    15.6   24.3   16585   16.3    8.0   0.4   0.4   0.3   0.3   0.3   0.3   1.6   3.9   0.0   0.0   0.1   0.5   0.6   0.5   0.4  0.55  0.54  0.46  0.00  0.00   62.20   58.51    4.23    0.00    0.00
 2000 335   107     0     0    15.6   23.8   16584   15.9    7.9   0.4   0.4   0.3   0.3   0.3   0.3   1.4   3.9   0.0   0.0   0.1   0.5   0.6   0.5   0.4  0.55  0.53  0.45  0.00  0.00   62.82   59.05    4.23    0.00    0.00
 2000 336   108     0     0    15.6   23.3   16583   15.5    7.8   0.4   0.4   0.3   0.3   0.3   0.3   1.2   3.9   0.0   0.0   0.1   0.5   0.6   0.5   0.4  0.54  0.52  0.44  0.00  0.00   63.42   59.58    4.23    0.00    0.00
 2000 337   109     0     0    15.6   22.9   16583   15.2    7.8   0.4   0.4   0.3   0.3   0.3   0.3   1.1   3.9   0.0   0.0   0.1   0.5   0.6   0.5   0.4  0.54  0.51  0.43  0.00  0.00   63.99   60.09    4.23    0.00    0.00
 2000 338   110     0     0    15.6   22.6   16582   14.9    7.7   0.3   0.4   0.3   0.3   0.3   0.3   1.0   4.0   0.0   0.0   0.1   0.5   0.6   0.5   0.4  0.54  0.50  0.42  0.00  0.00   64.53   60.60    4.23    0.00    0.00
 2000 339   111     0     0    15.6   22.3   16582   14.6    7.7   0.3   0.4   0.3   0.3   0.3   0.3   0.9   4.0   0.0   0.0   0.2   0.5   0.6   0.5   0.4  0.54  0.49  0.41  0.00  0.00   65.10   61.07    4.23    0.00    0.00
 2000 340   112     0     0    15.6   22.1   16581   14.5    7.5   0.5   0.4   0.3   0.3   0.3   0.3   0.8   4.0   0.0   0.0   0.1   0.5   0.6   0.5   0.4  0.54  0.48  0.40  0.00  0.00   65.68   61.67    4.23    0.00    0.00
 2000 341   113     0     0    15.6   21.8   16581   14.3    7.5   0.4   0.4   0.3   0.3   0.3   0.3   0.7   4.0   0.0   0.0   0.1   0.5   0.6   0.5   0.4  0.54  0.47  0.39  0.00  0.00   66.24   62.20    4.23    0.00    0.00
 2000 342   114     0     0    15.6   21.6   16580   14.2    7.4   0.4   0.4   0.3   0.3   0.3   0.3   0.6   4.0   0.0   0.0   0.1   0.5   0.6   0.5   0.4  0.54  0.47  0.38  0.00  0.00   66.82   62.76    4.23    0.00    0.00
 2000 343   115     0     0    15.6   21.4   16579   14.1    7.3   0.4   0.4   0.3   0.3   0.3   0.3   0.5   4.0   0.0   0.0   0.1   0.5   0.5   0.5   0.4  0.54  0.46  0.38  0.00  0.00   67.38   63.33    4.23    0.00    0.00
 2000 344   116     0     0    15.6   20.7   16579   13.5    7.2   0.2   0.4   0.4   0.3   0.3   0.3   0.5   3.8   0.0   0.0   0.1   0.4   0.5   0.5   0.4  0.53  0.45  0.37  0.00  0.00   67.93   63.91    4.23    0.00    0.00
 2000 345   117     0     0    15.6   20.1   16578   12.8    7.3   0.4   0.3   0.3   0.3   0.3   0.3   0.4   3.6   0.0   0.0   0.1   0.6   0.6   0.5   0.4  0.53  0.44  0.36  0.00  0.00   68.62   64.39    4.23    0.00    0.00
 2000 346   118     0     0    15.6   19.6   16577   12.4    7.1   0.4   0.5   0.3   0.3   0.3   0.3   0.4   3.4   0.0   0.0   0.1   0.5   0.6   0.4   0.4  0.53  0.43  0.35  0.00  0.00   69.34   65.12    4.23    0.00    0.00
 2000 347   119     0     0    15.6   18.9   16577   11.8    7.1   0.4   0.4   0.3   0.3   0.3   0.3   0.4   3.2   0.0   0.0   0.1   0.5   0.6   0.4   0.4  0.53  0.42  0.34  0.00  0.00   70.04   65.79    4.23    0.00    0.00
 2000 348   120     0     0    15.6   18.2   16576   11.3    7.0   0.2   0.3   0.4   0.3   0.4   0.3   0.3   3.0   0.0   0.0   0.1   0.4   0.6   0.4   0.4  0.53  0.42  0.34  0.00  0.00   70.73   66.46    4.23    0.00    0.00
 2000 349   121     0     0    15.6   17.9   16575   10.5    7.4   0.3   0.3   0.3   0.3   0.3   0.3   0.3   2.8   0.0   0.0   0.1   0.6   0.7   0.5   0.4  0.53  0.41  0.33  0.00  0.00   71.52   66.74    4.23    0.00    0.00
 2000 350   122     0     0    15.6   17.6   16575   10.2    7.4   0.4   0.5   0.3   0.3   0.3   0.3   0.3   2.7   0.0   0.0   0.1   0.5   0.7   0.5   0.4  0.53  0.40  0.32  0.00  0.00   72.30   67.31    4.23    0.00    0.00
 2000 351   123     0     0    15.6   17.2   16574    9.5    7.7   0.3   0.3   0.3   0.3   0.3   0.3   0.3   2.5   0.0   0.0   0.3   0.6   0.7   0.5   0.4  0.53  0.39  0.31  0.00  0.00   73.08   67.57    4.23    0.00    0.00
 2000 352   124     0     0    15.6   17.0   16573    9.6    7.4   0.7   0.3   0.4   0.3   0.3   0.3   0.3   2.3   0.0   0.0   0.0   0.7   0.6   0.5   0.4  0.53  0.39  0.31  0.00  0.00   73.84   68.26    4.23    0.00    0.00
 2000 353   125     0     0    15.6   16.4   16572    9.2    7.2   0.3   0.5   0.3   0.3   0.3   0.3   0.3   2.2   0.0   0.0   0.2   0.5   0.6   0.5   0.4  0.53  0.38  0.30  0.00  0.00   74.57   68.87    4.23    0.00    0.00
 2000 354   126     0     0    15.6   16.0   16572    8.9    7.1   0.5   0.4   0.3   0.3   0.3   0.3   0.3   2.1   0.0   0.0   0.1   0.5   0.6   0.5   0.4  0.53  0.37  0.29  0.00  0.00   75.27   69.52    4.23    0.00    0.00
 2000 355   127     0     0    15.6   15.6   16571    8.5    7.1   0.4   0.4   0.3   0.3   0.3   0.3   0.3   1.9   0.0   0.0   0.1   0.5   0.6   0.5   0.4  0.53  0.36  0.29  0.00  0.00   75.96   70.08    4.23    0.00    0.00
 2000 356   128     0     0    15.6   15.3   16570    8.3    7.1   0.4   0.4   0.3   0.3   0.3   0.3   0.3   1.8   0.0   0.0   0.1   0.5   0.6   0.5   0.4  0.53  0.36  0.28  0.00  0.00   76.65   70.67    4.23    0.00    0.00
 2000 357   129     0     0    15.6   15.0   16570    7.9    7.1   0.3   0.4   0.3   0.3   0.3   0.3   0.3   1.7   0.0   0.0   0.2   0.5   0.6   0.5   0.4  0.53  0.35  0.27  0.00  0.00   77.33   71.18    4.23    0.00    0.00
 2000 358   130     0     0    15.6   14.8   16569    7.9    7.0   0.6   0.4   0.3   0.3   0.3   0.3   0.3   1.6   0.0   0.0   0.1   0.5   0.6   0.5   0.4  0.53  0.35  0.27  0.00  0.00   78.02   71.86    4.23    0.00    0.00
 2000 359   131     0     0    15.6   14.5   16568    7.5    7.0   0.3   0.4   0.3   0.3   0.3   0.3   0.3   1.5   0.0   0.0   0.2   0.5   0.6   0.5   0.4  0.53  0.34  0.26  0.00  0.00   78.67   72.34    4.23    0.00    0.00
 2000 360   132     0     0    15.6   14.3   16568    7.3    6.9   0.5   0.4   0.3   0.3   0.3   0.3   0.3   1.4   0.0   0.0   0.1   0.5   0.6   0.5   0.4  0.53  0.33  0.25  0.00  0.00   79.30   72.94    4.23    0.00    0.00
 2000 361   133     0     0    15.6   14.0   16567    7.1    6.9   0.1   0.4   0.4   0.3   0.3   0.3   0.3   1.3   0.0   0.0   0.1   0.5   0.6   0.5   0.4  0.53  0.33  0.25  0.00  0.00   79.93   73.48    4.23    0.00    0.00
 2000 362   134     0     0    15.6   13.8   16566    6.6    7.2   0.2   0.2   0.3   0.3   0.3   0.3   0.3   1.3   0.0   0.0   0.1   0.6   0.7   0.5   0.4  0.53  0.32  0.24  0.00  0.00   80.65   73.80    4.23    0.00    0.00
 2000 363   135     0     0    15.6   13.9   16566    6.3    7.6   0.3   0.2   0.3   0.2   0.3   0.3   0.3   1.2   0.0   0.0   0.2   0.7   0.8   0.6   0.5  0.53  0.32  0.23  0.00  0.00   81.37   73.97    4.23    0.00    0.00
 2000 364   136     0     0    15.6   14.0   16565    6.5    7.5   0.6   0.3   0.3   0.3   0.3   0.3   0.3   1.1   0.0   0.0   0.0   0.7   0.8   0.6   0.5  0.53  0.31  0.23  0.00  0.00   82.14   74.44    4.23    0.00    0.00
 2000 365   137     0     0    15.6   13.8   16564    6.2    7.7   0.3   0.3   0.3   0.3   0.3   0.3   0.3   1.1   0.0   0.0   0.2   0.7   0.8   0.6   0.5  0.54  0.31  0.22  0.00  0.00   82.89   74.69    4.23    0.00    0.00
 2000 366   138     0     0    15.6   13.7   16564    6.3    7.3   0.5   0.3   0.3   0.3   0.3   0.3   0.3   1.0   0.0   0.0   0.1   0.7   0.6   0.6   0.5  0.54  0.30  0.21  0.00  0.00   83.63   75.30    4.23    0.00    0.00
 2001 001   139     0     0    15.6   13.3   16563    6.2    7.0   0.4   0.5   0.3   0.3   0.3   0.3   0.3   0.9   0.0   0.0   0.1   0.5   0.6   0.6   0.5  0.54  0.30  0.21  0.00  0.00   84.33   75.95    4.23    0.00    0.00
 2001 002   140     0     0    15.6   13.0   16562    6.1    6.9   0.4   0.4   0.3   0.3   0.3   0.3   0.3   0.9   0.0   0.0   0.1   0.5   0.6   0.5   0.5  0.54  0.29  0.20  0.00  0.00   85.05   76.57    4.23    0.00    0.00
 2001 003   141     0     0    15.6   12.9   16561    6.0    6.9   0.4   0.4   0.3   0.3   0.3   0.3   0.3   0.8   0.0   0.0   0.1   0.5   0.6   0.5   0.5  0.54  0.29  0.20  0.00  0.00   85.80   77.19    4.23    0.00    0.00
 2001 004   142     0     0    15.6   12.7   16561    5.9    6.8   0.4   0.5   0.3   0.3   0.3   0.3   0.3   0.8   0.0   0.0   0.1   0.5   0.6   0.5   0.5  0.54  0.28  0.19  0.00  0.00   86.56   77.87    4.23    0.00    0.00
 2001 005   143     0     0    15.6   12.6   16560    5.8    6.9   0.3   0.4   0.3   0.3   0.3   0.3   0.3   0.7   0.0   0.0   0.2   0.4   0.6   0.5   0.5  0.54  0.28  0.18  0.00  0.00   87.38   78.48    4.23    0.00    0.00
 2001 006   144     0     0    15.6   12.6   16559    5.9    6.7   0.7   0.4   0.3   0.3   0.3   0.3   0.3   0.7   0.0   0.0   0.0   0.4   0.6   0.5   0.5  0.54  0.27  0.18  0.00  0.00   88.20   79.33    4.23    0.00    0.00
 2001 007   145     0     0    15.6   12.3   16558    5.6    6.7   0.0   0.3   0.4   0.4   0.3   0.3   0.3   0.7   0.0   0.0   0.2   0.4   0.6   0.5   0.5  0.54  0.27  0.17  0.00  0.00   89.02   79.95    4.23    0.00    0.00
 2001 008   146     0     0    15.6   12.4   16558    5.3    7.1   0.4   0.3   0.3   0.3   0.3   0.3   0.3   0.6   0.0   0.0   0.0   0.6   0.7   0.6   0.5  0.55  0.26  0.17  0.00  0.00   89.86   80.33    4.23    0.00    0.00
 2001 009   147     0     0    15.6   12.5   16557    5.0    7.4   0.1   0.3   0.3   0.3   0.3   0.3   0.3   0.6   0.0   0.0   0.2   0.7   0.8   0.6   0.5  0.55  0.26  0.16  0.00  0.00   90.71   80.58    4.23    0.00    0.00
 2001 010   148     0     0    15.6   12.6   16556    5.0    7.6   0.4   0.2   0.3   0.3   0.3   0.3   0.3   0.6   0.0   0.0   0.0   0.7   0.8   0.6   0.6  0.55  0.26  0.16  0.00  0.00   91.55   80.95    4.23    0.00    0.00
 2001 011   149     0     0    15.6   12.7   16555    4.8    8.0   0.3   0.3   0.3   0.3   0.2   0.2   0.3   0.5   0.0   0.0   0.2   0.8   0.9   0.6   0.6  0.56  0.25  0.15  0.00  0.00   92.33   81.09    4.23    0.00    0.00
 2001 012   150     0     0    15.6   12.7   16555    4.9    7.9   0.5   0.3   0.3   0.3   0.3   0.3   0.3   0.5   0.0   0.0   0.1   0.8   0.8   0.6   0.6  0.57  0.25  0.15  0.00  0.00   93.08   81.43    4.23    0.00    0.00
 2001 013   151     0     0    15.6   12.5   16554    5.0    7.5   0.4   0.5   0.3   0.3   0.3   0.3   0.3   0.5   0.0   0.0   0.1   0.5   0.8   0.6   0.6  0.57  0.25  0.15  0.00  0.00   93.81   81.88    4.24    0.00    0.00
 2001 014   152     0     0    15.6   12.3   16553    5.0    7.2   0.3   0.4   0.4   0.3   0.3   0.3   0.3   0.4   0.0   0.0   0.1   0.5   0.6   0.6   0.6  0.57  0.25  0.14  0.00  0.00   94.55   82.44    4.24    0.00    0.00
 2001 015   153     0     0    15.6   12.2   16553    4.6    7.6   0.4   0.3   0.3   0.3   0.3   0.3   0.3   0.4   0.0   0.0   0.1   0.6   0.7   0.7   0.6  0.57  0.25  0.14  0.00  0.00   95.27   82.65    4.24    0.00    0.00
 2001 016   154     0     0    15.6   12.3   16552    4.6    7.7   0.4   0.3   0.3   0.3   0.3   0.3   0.3   0.4   0.0   0.0   0.1   0.7   0.7   0.7   0.6  0.57  0.25  0.13  0.00  0.00   96.04   82.92    4.24    0.00    0.00
 2001 017   155     0     0    15.6   12.3   16551    4.8    7.4   0.4   0.5   0.3   0.3   0.3   0.3   0.3   0.4   0.0   0.0   0.1   0.5   0.7   0.6   0.6  0.58  0.25  0.13  0.00  0.00   96.85   83.48    4.24    0.00    0.00
 2001 018   156     0     0    15.6   12.1   16551    4.8    7.3   0.3   0.4   0.3   0.3   0.3   0.3   0.3   0.4   0.0   0.0   0.2   0.5   0.6   0.6   0.6  0.58  0.25  0.13  0.00  0.00   97.68   84.02    4.24    0.00    0.00
 2001 019   157     0     0    15.6   12.0   16550    5.0    7.0   0.6   0.4   0.3   0.3   0.3   0.3   0.3   0.3   0.0   0.0   0.0   0.5   0.6   0.6   0.5  0.58  0.26  0.12  0.00  0.00   98.51   84.80    4.24    0.00    0.00
 2001 020   158     0     0    15.6   11.8   16549    4.7    7.0   0.3   0.4   0.3   0.3   0.3   0.3   0.3   0.3   0.0   0.0   0.1   0.5   0.6   0.6   0.5  0.59  0.26  0.12  0.00  0.00   99.32   85.37    4.24    0.00    0.00
 2001 021   159     0     0    15.6   11.7   16548    4.7    7.0   0.5   0.4   0.3   0.3   0.3   0.3   0.3   0.3   0.0   0.0   0.1   0.5   0.6   0.6   0.5  0.59  0.26  0.12  0.00  0.00  100.12   86.00    4.24    0.00    0.00
 2001 022   160     0     0    15.6   11.6   16548    4.7    6.9   0.4   0.4   0.3   0.3   0.3   0.3   0.3   0.3   0.0   0.0   0.1   0.5   0.6   0.6   0.5  0.59  0.26  0.11  0.00  0.00  100.90   86.58    4.24    0.00    0.00
 2001 023   161     0     0    15.6   11.6   16547    4.6    6.9   0.4   0.4   0.3   0.3   0.3   0.3   0.3   0.3   0.0   0.0   0.1   0.5   0.6   0.5   0.5  0.59  0.26  0.11  0.00  0.00  101.68   87.16    4.24    0.00    0.00
 2001 024   162     0     0    15.6   12.4   16546    5.2    7.1   0.6   0.5   0.4   0.3   0.3   0.3   0.3   0.3   0.0   0.0   0.1   0.5   0.7   0.6   0.5  0.61  0.27  0.11  0.00  0.00  102.49   87.77    4.24    0.00    0.00
 2001 025   163     0     0    15.6   13.2   16546    5.9    7.3   0.7   0.7   0.5   0.4   0.4   0.3   0.3   0.3   0.0   0.0   0.1   0.5   0.7   0.6   0.5  0.63  0.27  0.11  0.00  0.00  103.33   88.43    4.24    0.00    0.00

*DSSAT Cropping System Model Ver. 4.0.2.000               Aug 19, 2016; 14:33:09

*RUN   2        : UYMZ                    
 MODEL          : MZCER040 - Maize           
 EXPERIMENT     : UYMZ0218 MZ    late to create DSS                             
 TREATMENT  1   : UYMZ                    

@YEAR DOY   DAS  NAPC  NI#M    NLCC   NIAD    NOAD   NITD   NHTD  NI1D  NI2D  NI3D  NI4D  NI5D  NI6D  NI7D  NI8D  NI9D  NI10  NH1D  NH2D  NH3D  NH4D  NH5D  NH6D  NH7D  NH8D  NH9D  NH10    NMNC    NITC    NDNC    NIMC    AMLC
 2001 228     0     0     0     0.0   99.4   16645   76.8   22.6   8.5  17.5  16.3   8.6   4.6   0.0   0.1   0.1   0.0   0.0   0.3   1.3   1.5   1.4   1.4  1.50  1.46  1.45  0.00  0.00    0.61    1.99    0.00    0.00    0.00
 2001 229     1     0     0     0.0  100.0   16645   77.8   22.2   6.9  16.1  17.9   8.7   4.7   0.0   0.1   0.1   0.0   0.0   0.3   1.4   1.4   1.4   1.4  1.51  1.43  1.41  0.00  0.00    1.23    2.94    0.00    0.00    0.00
 2001 230     2     0     0     0.0  100.6   16644   78.7   21.9   5.8  15.3  19.0   8.9   4.7   0.1   0.1   0.2   0.0   0.0   0.4   1.4   1.4   1.3   1.3  1.51  1.39  1.36  0.00  0.00    1.83    3.87    0.00    0.00    0.00
 2001 231     3     0     0     0.0  101.2   16644   79.6   21.6   5.9  14.9  19.3   9.0   4.8   0.1   0.2   0.2   0.0   0.0   0.4   1.5   1.4   1.3   1.3  1.51  1.36  1.32  0.00  0.00    2.42    4.77    0.00    0.00    0.00
 2001 232     4     0     0     0.0  101.7   16643   80.6   21.2   6.2  14.9  19.4   9.2   4.8   0.1   0.2   0.3   0.0   0.0   0.2   1.5   1.4   1.2   1.3  1.52  1.33  1.28  0.00  0.00    2.98    5.78    0.00    0.00    0.00
 2001 233     5     0     0     0.0  102.3   16643   81.7   20.6   6.3  15.2  19.4   9.4   4.9   0.1   0.3   0.3   0.0   0.0   0.1   1.3   1.3   1.2   1.2  1.52  1.30  1.24  0.00  0.00    3.52    6.87    0.00    0.00    0.00
 2001 234     6     0     0     0.0  102.8   16642   82.7   20.1   6.5  15.3  19.4   9.5   5.0   0.1   0.3   0.3   0.0   0.0   0.1   1.2   1.3   1.1   1.2  1.52  1.27  1.21  0.00  0.00    4.03    7.86    0.00    0.00    0.00
 2001 235     7     0     0     0.0  103.3   16642   83.6   19.7   6.8  15.5  19.4   9.7   5.0   0.1   0.4   0.4   0.0   0.0   0.1   1.1   1.3   1.1   1.1  1.52  1.24  1.17  0.00  0.00    4.53    8.78    0.00    0.00    0.00
 2001 236     8     0     0     0.0  103.8   16641   84.5   19.3   7.0  15.6  19.5   9.8   5.1   0.2   0.4   0.4   0.0   0.0   0.1   1.0   1.3   1.1   1.1  1.53  1.22  1.14  0.00  0.00    5.02    9.65    0.00    0.00    0.00
 2001 237     9     0     0     0.0  104.3   16641   85.3   19.0   7.2  15.6  19.5   9.9   5.1   0.2   0.4   0.5   0.0   0.0   0.1   0.9   1.3   1.1   1.1  1.53  1.19  1.10  0.00  0.00    5.53   10.51    0.00    0.00    0.00
 2001 238    10     0     0     0.0  104.8   16640   86.2   18.6   5.3  16.4  19.8  10.1   5.1   0.2   0.5   0.5   0.0   0.0   0.1   0.8   1.3   1.0   1.1  1.53  1.17  1.07  0.00  0.00    6.05   11.37    0.00    0.00    0.00
 2001 239    11     0     0     0.0  105.4   16639   86.9   18.5   5.4  16.0  20.1  10.2   5.2   0.2   0.5   0.5   0.0   0.0   0.1   0.9   1.3   1.0   1.0  1.53  1.14  1.04  0.00  0.00    6.62   12.12    0.00    0.00    0.00
 2001 240    12     0     0     0.0  106.0   16639   87.9   18.1   5.5  16.2  20.2  10.3   5.2   0.2   0.5   0.6   0.0   0.0   0.1   0.8   1.3   1.0   1.0  1.54  1.12  1.01  0.00  0.00    7.21   13.04    0.00    0.00    0.00
 2001 241    13     0     0     0.0  106.6   16638   88.7   17.8   5.6  16.3  20.2  10.5   5.3   0.3   0.6   0.6   0.0   0.0   0.1   0.8   1.2   0.9   1.0  1.54  1.09  0.98  0.00  0.00    7.79   13.93    0.00    0.00    0.00
 2001 242    14     0     0     0.0  107.2   16638   89.6   17.5   5.8  16.4  20.3  10.6   5.3   0.3   0.6   0.6   0.0   0.0   0.1   0.7   1.2   0.9   1.0  1.54  1.07  0.95  0.00  0.00    8.39   14.81    0.00    0.00    0.00
 2001 243    15     0     0     0.0  107.8   16637   90.5   17.3   3.2  13.9  21.7  11.9   5.4   0.3   0.6   0.7   0.0   0.0   0.1   0.7   1.2   0.9   0.9  1.54  1.05  0.92  0.00  0.00    9.01   15.70    0.00    0.00    0.00
 2001 244    16     0     0     0.8  107.4   16636   90.0   17.3   0.9   6.7  14.9  11.6  11.0   2.6   0.5   1.0   0.0   0.0   0.1   0.8   1.3   0.9   0.9  1.55  1.03  0.89  0.00  0.00    9.61   16.24    0.00    0.00    0.00
 2001 245    17     0     0     1.4  107.4   16636   89.6   17.8   0.6   5.3  13.4  11.2  11.0   3.5   1.0   1.0   0.0   0.0   0.2   0.8   1.4   0.9   0.9  1.56  1.03  0.89  0.00  0.00   10.21   16.36    0.00    0.00    0.00
 2001 246    18     0     0     1.5  107.9   16635   89.6   18.3   0.6   5.2  13.2  11.1  10.9   3.6   1.2   1.0   0.0   0.0   0.3   0.9   1.5   0.9   1.0  1.58  1.04  0.89  0.00  0.00   10.81   16.51    0.00    0.00    0.00
 2001 247    19     0     0     1.9  108.0   16635   89.4   18.7   0.7   5.2  12.9  10.8  10.7   3.7   1.4   1.0   0.0   0.0   0.3   1.0   1.6   1.0   1.0  1.60  1.04  0.89  0.00  0.00   11.38   16.67    0.00    0.00    0.00
 2001 248    20     0     0     2.2  108.2   16634   89.3   18.9   0.9   5.1  12.7  10.6  10.5   3.8   1.5   1.0   0.0   0.0   0.2   1.0   1.6   1.0   1.0  1.61  1.05  0.89  0.00  0.00   11.90   16.97    0.11    0.00    0.00
 2001 249    21     0     0     2.2  108.5   16634   89.5   19.0   1.1   5.3  12.6  10.6  10.5   3.9   1.5   1.1   0.0   0.0   0.1   1.0   1.7   1.0   1.0  1.63  1.05  0.88  0.00  0.00   12.39   17.37    0.24    0.00    0.00
 2001 250    22     0     0     3.3  107.9   16633   88.8   19.1   0.5   3.2   9.6   9.5  10.3   5.3   2.6   1.5   0.0   0.0   0.1   0.9   1.7   1.0   1.0  1.64  1.05  0.88  0.00  0.00   12.86   17.74    0.31    0.00    0.00
 2001 251    23     0     0     4.0  107.2   16633   87.8   19.4   0.6   3.1   9.3   9.1   9.9   5.3   2.8   1.6   0.0   0.0   0.2   0.9   1.8   1.0   1.0  1.66  1.06  0.88  0.00  0.00   13.32   17.86    0.68    0.00    0.00
 2001 252    24     0     0     4.5  106.9   16632   87.3   19.7   0.7   3.1   9.1   8.9   9.7   5.3   2.9   1.7   0.0   0.0   0.1   1.0   1.8   1.1   1.1  1.67  1.06  0.87  0.00  0.00   13.81   18.08    0.90    0.00    0.00
 2001 253    25     0     0     4.8  107.0   16632   87.3   19.8   0.9   3.2   9.1   8.8   9.6   5.3   3.0   1.7   0.0   0.0   0.1   0.9   1.9   1.1   1.1  1.69  1.06  0.87  0.00  0.00   14.30   18.47    1.02    0.00    0.00
 2001 254    26     0     0     4.9  107.3   16631   87.6   19.7   1.0   3.3   9.2   8.8   9.6   5.3   3.0   1.8   0.0   0.0   0.1   0.8   1.8   1.1   1.1  1.70  1.06  0.86  0.00  0.00   14.80   19.04    1.07    0.00    0.00
 2001 255    27     0     0     4.9  107.6   16631   88.0   19.6   1.2   3.4   9.3   8.8   9.6   5.3   3.0   1.8   0.0   0.0   0.1   0.8   1.8   1.1   1.1  1.72  1.06  0.86  0.00  0.00   15.30   19.60    1.10    0.00    0.00
 2001 256    28     0     0     5.0  108.0   16630   88.4   19.6   1.4   3.5   9.4   8.8   9.5   5.3   3.0   1.8   0.0   0.0   0.1   0.7   1.7   1.1   1.1  1.73  1.07  0.85  0.00  0.00   15.80   20.14    1.13    0.00    0.00
 2001 257    29     0     0     5.0  108.5   16630   88.9   19.5   1.5   3.6   9.5   8.8   9.6   5.3   3.1   1.8   0.0   0.0   0.1   0.7   1.7   1.1   1.1  1.74  1.07  0.85  0.00  0.00   16.31   20.68    1.14    0.00    0.00
 2001 258    30     0     0     5.0  108.9   16629   89.4   19.4   1.7   3.7   9.5   8.9   9.6   5.3   3.1   1.8   0.0   0.0   0.1   0.7   1.6   1.1   1.1  1.76  1.07  0.84  0.00  0.00   16.82   21.30    1.16    0.00    0.00
 2001 259    31     0     0     5.0  109.2   16629   89.8   19.3   1.8   3.8   9.6   8.9   9.6   5.4   3.1   1.8   0.0   0.0   0.1   0.6   1.6   1.1   1.1  1.77  1.07  0.83  0.00  0.00   17.31   21.88    1.17    0.00    0.00
 2001 260    32     0     0     5.0  109.5   16628   90.3   19.2   1.9   3.8   9.6   9.0   9.6   5.4   3.1   1.8   0.0   0.0   0.1   0.6   1.6   1.0   1.2  1.78  1.07  0.83  0.00  0.00   17.78   22.43    1.19    0.00    0.00
 2001 261    33     0     0     5.0  109.9   16628   90.7   19.2   2.0   3.9   9.7   9.0   9.6   5.4   3.1   1.9   0.0   0.0   0.1   0.6   1.5   1.0   1.2  1.79  1.07  0.82  0.00  0.00   18.24   22.95    1.20    0.00    0.00
 2001 262    34     0     0     5.0  110.2   16627   91.1   19.1   2.2   4.0   9.7   9.1   9.6   5.4   3.1   1.9   0.0   0.0   0.1   0.6   1.5   1.0   1.2  1.81  1.07  0.82  0.00  0.00   18.70   23.46    1.21    0.00    0.00
 2001 263    35     0     0     5.0  110.5   16627   91.4   19.1   2.3   4.0   9.7   9.1   9.6   5.4   3.1   1.9   0.0   0.0   0.1   0.6   1.5   1.0   1.2  1.82  1.07  0.81  0.00  0.00   19.20   24.00    1.22    0.00    0.00
 2001 264    36     0     0     5.0  110.6   16626   91.6   19.0   2.4   4.1   9.6   9.2   9.7   5.4   3.1   1.9   0.0   0.0   0.1   0.6   1.4   0.9   1.2  1.83  1.07  0.81  0.00  0.00   19.75   24.59    1.24    0.00    0.00
 2001 265    37     0     0     5.0  110.8   16626   91.9   18.9   2.5   4.1   9.6   9.2   9.7   5.4   3.1   1.9   0.0   0.0   0.1   0.5   1.4   0.9   1.2  1.85  1.07  0.80  0.00  0.00   20.36   25.23    1.25    0.00    0.00
 2001 266    38     0     0     5.0  110.8   16625   92.0   18.8   2.7   4.2   9.4   9.3   9.8   5.4   3.1   1.9   0.0   0.0   0.1   0.5   1.3   0.9   1.2  1.86  1.07  0.79  0.00  0.00   21.02   26.02    1.26    0.00    0.00
 2001 267    39     0     0     5.0  110.8   16624   92.2   18.6   2.8   4.2   9.3   9.4   9.8   5.4   3.1   1.9   0.0   0.0   0.1   0.5   1.3   0.9   1.1  1.88  1.07  0.79  0.00  0.00   21.69   26.80    1.27    0.00    0.00
 2001 268    40     0     0     5.0  110.9   16624   92.4   18.5   2.4   4.5   9.2   9.4   9.9   5.4   3.2   1.9   0.0   0.0   0.1   0.5   1.2   0.8   1.1  1.89  1.07  0.78  0.00  0.00   22.37   27.59    1.28    0.00    0.00
 2001 269    41     0     0     5.0  110.7   16623   92.2   18.4   2.4   4.3   9.0   9.5  10.0   5.4   3.2   1.9   0.0   0.0   0.1   0.6   1.2   0.8   1.1  1.91  1.07  0.78  0.00  0.00   23.02   28.21    1.29    0.00    0.00
 2001 270    42     0     0     5.0  110.6   16622   92.3   18.3   1.9   4.3   9.1   9.5  10.0   5.4   3.2   1.9   0.0   0.0   0.1   0.6   1.2   0.8   1.0  1.92  1.07  0.77  0.00  0.00   23.63   28.90    1.30    0.00    0.00
 2001 271    43     0     0     5.0  110.8   16622   92.3   18.4   1.9   4.2   9.0   9.6  10.1   5.4   3.2   1.9   0.0   0.0   0.2   0.7   1.2   0.8   1.0  1.93  1.07  0.77  0.00  0.00   24.20   29.37    1.31    0.00    0.00
 2001 272    44     0     0     7.0  108.9   16621   90.5   18.4   0.7   2.4   6.5   7.9   9.5   6.6   4.4   2.8   0.0   0.0   0.1   0.7   1.1   0.8   1.0  1.95  1.07  0.76  0.00  0.00   24.75   29.91    1.32    0.00    0.00
 2001 273    45     0     0     8.9  106.4   16621   87.7   18.7   0.4   1.7   5.3   7.1   8.9   6.8   4.8   3.1   0.0   0.0   0.1   0.8   1.2   0.8   1.0  1.96  1.08  0.76  0.00  0.00   25.27   30.08    1.46    0.00    0.00
 2001 274    46     0     0    16.2   99.1   16620   80.0   19.0   0.1   0.8   3.2   4.9   7.0   6.7   5.5   4.5   0.0   0.0   0.2   0.8   1.2   0.8   1.0  1.98  1.08  0.76  0.00  0.00   25.79   30.20    1.60    0.00    0.00
 2001 275    47     0     0    17.5   97.7   16620   78.4   19.3   0.1   0.7   3.0   4.6   6.7   6.6   5.6   4.6   0.0   0.0   0.3   0.8   1.3   0.8   1.0  1.99  1.09  0.76  0.00  0.00   26.26   30.29    1.77    0.00    0.00
 2001 276    48     0     0    18.2   97.0   16619   77.4   19.5   0.3   0.6   2.8   4.4   6.6   6.5   5.6   4.7   0.0   0.0   0.2   0.9   1.3   0.9   1.1  2.01  1.09  0.76  0.00  0.00   26.81   30.53    1.93    0.00    0.00
 2001 277    49     0     0    18.8   96.3   16619   76.4   19.9   0.3   0.6   2.7   4.2   6.4   6.4   5.6   4.7   0.0   0.0   0.2   1.0   1.4   0.9   1.1  2.03  1.10  0.76  0.00  0.00   27.36   30.68    2.18    0.00    0.00
 2001 278    50     0     0    20.4   94.1   16618   74.1   20.0   0.5   0.6   2.4   4.0   6.2   6.3   5.5   4.6   0.0   0.0   0.1   1.0   1.4   0.9   1.1  2.04  1.11  0.76  0.00  0.00   27.91   30.93    2.40    0.00    0.00
 2001 279    51     0     0    21.3   92.1   16618   72.4   19.8   0.5   0.7   2.1   3.7   6.1   6.2   5.5   4.6   0.0   0.0   0.1   0.8   1.3   0.9   1.1  2.05  1.11  0.76  0.00  0.00   28.47   31.35    2.52    0.00    0.00
 2001 280    52     0     0    21.6   91.8   16617   72.1   19.7   0.3   0.7   1.8   3.4   5.9   6.4   5.6   4.6   0.0   0.0   0.1   0.7   1.2   0.9   1.1  2.07  1.11  0.76  0.00  0.00   29.02   31.89    2.58    0.00    0.00
 2001 281    53     0     0    23.4   89.4   16616   69.5   19.9   0.3   0.6   1.6   3.0   5.6   6.2   5.6   4.7   0.0   0.0   0.2   0.8   1.3   0.9   1.2  2.08  1.11  0.75  0.00  0.00   29.58   32.03    2.77    0.00    0.00
 2001 282    54     0     0    23.7   87.5   16616   67.8   19.7   0.4   0.5   1.2   2.6   5.5   6.1   5.6   4.7   0.0   0.0   0.1   0.8   1.1   0.9   1.2  2.10  1.12  0.75  0.00  0.00   30.15   32.30    2.88    0.00    0.00
 2001 283    55     0     0    24.5   86.1   16615   66.4   19.6   0.5   0.6   1.1   2.4   5.4   6.1   5.5   4.7   0.0   0.0   0.1   0.7   1.1   0.9   1.2  2.11  1.12  0.74  0.00  0.00   30.70   32.68    2.97    0.00    0.00
 2001 284    56     0     0    25.0   83.6   16615   64.5   19.1   0.4   0.5   0.8   2.0   5.2   6.0   5.5   4.7   0.0   0.0   0.1   0.6   0.9   0.8   1.2  2.12  1.12  0.74  0.00  0.00   31.27   33.17    3.02    0.00    0.00
 2001 285    57     0     0    25.2   81.3   16614   62.6   18.7   0.4   0.4   0.5   1.8   4.7   6.0   5.5   4.7   0.0   0.0   0.1   0.5   0.8   0.8   1.1  2.14  1.12  0.74  0.00  0.00   31.84   33.69    3.05    0.00    0.00
 2001 286    58     0     0    25.3   80.4   16614   61.9   18.5   0.4   0.4   0.5   1.7   4.5   6.0   5.5   4.7   0.0   0.0   0.1   0.5   0.7   0.7   1.1  2.15  1.12  0.73  0.00  0.00   32.42   34.18    3.07    0.00    0.00
 2001 287    59     0     0    25.3   78.1   16613   59.9   18.2   0.4   0.4   0.3   1.5   3.8   6.0   5.5   4.7   0.0   0.0   0.1   0.5   0.7   0.7   1.0  2.16  1.12  0.73  0.00  0.00   33.01   34.68    3.08    0.00    0.00
 2001 288    60     0     0    25.3   76.2   16612   58.4   17.8   0.2   0.4   0.4   1.2   3.2   6.0   5.5   4.7   0.0   0.0   0.1   0.5   0.6   0.6   0.9  2.17  1.12  0.72  0.00  0.00   33.64   35.26    3.10    0.00    0.00
 2001 289    61     0     0    25.3   75.2   16612   57.3   17.9   0.2   0.3   0.3   1.1   2.9   6.0   5.5   4.7   0.0   0.0   0.2   0.6   0.7   0.6   0.8  2.19  1.12  0.72  0.00  0.00   34.25   35.57    3.11    0.00    0.00
 2001 290    62     0     0    25.3   73.4   16611   55.6   17.9   0.2   0.2   0.3   0.8   2.3   6.0   5.6   4.7   0.0   0.0   0.3   0.7   0.7   0.6   0.7  2.20  1.12  0.71  0.00  0.00   34.87   35.88    3.12    0.00    0.00
 2001 291    63     0     0    26.5   71.7   16611   53.8   17.9   0.5   0.2   0.3   0.6   1.8   5.8   5.5   4.8   0.0   0.0   0.1   0.7   0.7   0.6   0.7  2.21  1.12  0.71  0.00  0.00   35.50   36.18    3.15    0.00    0.00
 2001 292    64     0     0    27.0   70.2   16610   52.3   17.9   0.4   0.3   0.3   0.5   1.4   5.7   5.5   4.8   0.0   0.0   0.1   0.7   0.7   0.6   0.7  2.23  1.12  0.70  0.00  0.00   36.15   36.43    3.17    0.00    0.00
 2001 293    65     0     0    27.0   69.4   16609   51.8   17.6   0.3   0.4   0.3   0.4   1.1   5.7   5.5   4.8   0.0   0.0   0.1   0.5   0.6   0.6   0.7  2.24  1.12  0.70  0.00  0.00   36.81   36.95    3.19    0.00    0.00
 2001 294    66     0     0    27.0   68.8   16609   51.2   17.6   0.3   0.3   0.3   0.3   0.9   5.7   5.6   4.8   0.0   0.0   0.2   0.6   0.6   0.6   0.6  2.25  1.12  0.70  0.00  0.00   37.51   37.36    3.20    0.00    0.00
 2001 295    67     0     0    27.0   65.0   16608   48.4   16.6   0.5   0.3   0.3   0.3   0.7   5.1   5.6   4.8   0.0   0.0   0.1   0.6   0.6   0.6   0.6  2.07  1.12  0.69  0.00  0.00   38.20   37.89    3.21    0.00    0.00
 2001 296    68     0     0    27.0   60.1   16607   44.7   15.4   0.4   0.4   0.3   0.3   0.6   4.2   5.6   4.8   0.0   0.0   0.1   0.5   0.6   0.5   0.6  1.81  1.12  0.69  0.00  0.00   38.87   38.46    3.22    0.00    0.00
 2001 297    69     0     0    27.0   56.0   16607   41.6   14.3   0.4   0.4   0.3   0.3   0.5   3.5   5.6   4.9   0.0   0.0   0.1   0.5   0.6   0.5   0.6  1.57  1.12  0.68  0.00  0.00   39.52   39.03    3.23    0.00    0.00
 2001 298    70     0     0    27.0   52.6   16606   39.1   13.5   0.4   0.4   0.3   0.3   0.4   2.9   5.6   4.9   0.0   0.0   0.1   0.5   0.6   0.5   0.5  1.38  1.12  0.68  0.00  0.00   40.17   39.59    3.23    0.00    0.00
 2001 299    71     0     0    27.1   49.9   16605   37.0   12.9   0.1   0.3   0.3   0.3   0.4   2.4   5.6   4.9   0.0   0.0   0.1   0.5   0.6   0.5   0.5  1.23  1.12  0.68  0.00  0.00   40.84   40.16    3.24    0.00    0.00
 2001 300    72     0     0    31.4   43.5   16605   30.7   12.8   0.1   0.2   0.2   0.2   0.3   1.5   4.6   5.0   0.0   0.0   0.2   0.6   0.7   0.6   0.6  1.12  1.12  0.67  0.00  0.00   41.52   40.29    3.24    0.00    0.00
 2001 301    73     0     0    33.2   41.2   16604   28.2   13.0   0.1   0.2   0.2   0.2   0.2   1.3   4.2   4.9   0.0   0.0   0.3   0.7   0.7   0.6   0.6  1.07  1.13  0.67  0.00  0.00   42.20   40.41    3.30    0.00    0.00
 2001 302    74     0     0    34.2   39.9   16603   26.8   13.1   0.1   0.2   0.2   0.2   0.3   1.1   4.0   4.8   0.0   0.0   0.4   0.7   0.8   0.6   0.6  1.02  1.13  0.67  0.00  0.00   42.88   40.55    3.36    0.00    0.00
 2001 303    75     0     0    36.2   37.5   16603   24.4   13.1   0.2   0.2   0.2   0.2   0.2   0.9   3.5   4.5   0.0   0.0   0.5   0.8   0.8   0.6   0.6  0.98  1.14  0.67  0.00  0.00   43.55   40.69    3.41    0.00    0.00
 2001 304    76     0     0    37.1   35.7   16602   23.2   12.5   0.7   0.2   0.2   0.2   0.3   0.7   3.4   4.3   0.0   0.0   0.1   0.7   0.8   0.6   0.6  0.92  1.14  0.67  0.00  0.00   44.19   41.10    3.45    0.00    0.00
 2001 305    77     0     0    37.4   34.5   16601   22.6   11.9   0.4   0.4   0.3   0.2   0.3   0.6   3.3   4.2   0.0   0.0   0.1   0.5   0.6   0.6   0.6  0.86  1.14  0.67  0.00  0.00   44.82   41.57    3.47    0.00    0.00
 2001 306    78     0     0    37.5   33.7   16601   22.3   11.4   0.4   0.4   0.3   0.3   0.3   0.5   3.3   4.2   0.0   0.0   0.1   0.5   0.6   0.6   0.6  0.81  1.14  0.66  0.00  0.00   45.47   42.13    3.48    0.00    0.00
 2001 307    79     0     0    37.6   33.0   16600   21.9   11.2   0.4   0.4   0.3   0.3   0.3   0.4   3.3   4.2   0.0   0.0   0.1   0.5   0.6   0.6   0.6  0.76  1.14  0.66  0.00  0.00   46.11   42.65    3.48    0.00    0.00
 2001 308    80     0     0    37.6   32.6   16599   21.6   10.9   0.4   0.4   0.3   0.3   0.3   0.4   3.3   4.2   0.0   0.0   0.1   0.5   0.6   0.5   0.5  0.73  1.14  0.66  0.00  0.00   46.75   43.16    3.49    0.00    0.00
 2001 309    81     0     0    37.6   32.2   16599   21.5   10.8   0.4   0.4   0.3   0.3   0.3   0.3   3.3   4.2   0.0   0.0   0.1   0.5   0.6   0.5   0.5  0.70  1.14  0.65  0.00  0.00   47.40   43.68    3.49    0.00    0.00
 2001 310    82     0     0    37.6   32.0   16598   21.4   10.6   0.2   0.3   0.3   0.3   0.3   0.3   3.4   4.2   0.0   0.0   0.1   0.5   0.6   0.5   0.5  0.67  1.14  0.65  0.00  0.00   48.08   44.22    3.49    0.00    0.00
 2001 311    83     0     0    37.6   32.0   16597   21.0   11.0   0.2   0.3   0.3   0.3   0.3   0.3   3.4   4.2   0.0   0.0   0.2   0.6   0.7   0.6   0.5  0.66  1.14  0.65  0.00  0.00   48.76   44.38    3.50    0.00    0.00
 2001 312    84     0     0    37.9   32.0   16597   20.8   11.2   0.2   0.3   0.3   0.2   0.3   0.3   3.3   4.2   0.0   0.0   0.3   0.7   0.7   0.6   0.6  0.64  1.14  0.64  0.00  0.00   49.42   44.54    3.50    0.00    0.00
 2001 313    85     0     0    38.0   32.0   16596   20.9   11.1   0.5   0.2   0.3   0.3   0.3   0.3   3.2   4.2   0.0   0.0   0.1   0.7   0.7   0.6   0.6  0.63  1.14  0.64  0.00  0.00   50.07   44.91    3.50    0.00    0.00
 2001 314    86     0     0    38.3   31.8   16596   20.5   11.3   0.2   0.3   0.3   0.3   0.3   0.3   3.1   4.3   0.0   0.0   0.2   0.7   0.8   0.6   0.6  0.63  1.14  0.64  0.00  0.00   50.72   45.03    3.52    0.00    0.00
 2001 315    87     0     0    40.0   30.3   16595   18.8   11.5   0.2   0.3   0.3   0.2   0.2   0.2   2.7   4.0   0.0   0.0   0.3   0.8   0.8   0.6   0.6  0.63  1.15  0.64  0.00  0.00   51.34   45.14    3.57    0.00    0.00
 2001 316    88     0     0    40.7   29.6   16594   18.3   11.3   0.5   0.3   0.3   0.3   0.3   0.2   2.6   3.8   0.0   0.0   0.1   0.7   0.8   0.6   0.6  0.62  1.15  0.63  0.00  0.00   51.98   45.46    3.59    0.00    0.00
 2001 317    89     0     0    40.9   29.3   16594   18.4   10.9   0.4   0.4   0.3   0.3   0.3   0.3   2.6   3.8   0.0   0.0   0.1   0.5   0.7   0.6   0.6  0.61  1.15  0.63  0.00  0.00   52.66   45.90    3.60    0.00    0.00
 2001 318    90     0     0    41.0   29.1   16593   18.5   10.6   0.4   0.4   0.3   0.3   0.3   0.3   2.6   3.8   0.0   0.0   0.1   0.5   0.6   0.6   0.6  0.61  1.15  0.63  0.00  0.00   53.35   46.51    3.61    0.00    0.00
 2001 319    91     0     0    41.0   28.9   16592   18.5   10.4   0.4   0.4   0.3   0.3   0.3   0.3   2.6   3.8   0.0   0.0   0.1   0.5   0.6   0.6   0.6  0.60  1.15  0.62  0.00  0.00   54.05   47.08    3.61    0.00    0.00
 2001 320    92     0     0    41.0   28.2   16592   18.0   10.2   0.4   0.4   0.3   0.3   0.3   0.3   2.4   3.8   0.0   0.0   0.1   0.5   0.6   0.5   0.5  0.60  1.09  0.62  0.00  0.00   54.75   47.65    3.61    0.00    0.00
 2001 321    93     0     0    41.0   27.2   16591   17.3    9.9   0.4   0.4   0.3   0.3   0.3   0.3   2.1   3.8   0.0   0.0   0.1   0.5   0.6   0.5   0.5  0.59  1.02  0.62  0.00  0.00   55.42   48.19    3.61    0.00    0.00
 2001 322    94     0     0    41.0   26.4   16590   16.7    9.7   0.4   0.4   0.3   0.3   0.3   0.3   1.8   3.8   0.0   0.0   0.1   0.5   0.6   0.5   0.5  0.59  0.93  0.61  0.00  0.00   56.08   48.75    3.62    0.00    0.00
 2001 323    95     0     0    41.0   25.7   16590   16.2    9.5   0.4   0.4   0.3   0.3   0.3   0.3   1.6   3.8   0.0   0.0   0.1   0.5   0.6   0.5   0.5  0.58  0.86  0.61  0.00  0.00   56.76   49.34    3.62    0.00    0.00
 2001 324    96     0     0    41.0   25.1   16589   15.8    9.3   0.4   0.4   0.3   0.3   0.3   0.3   1.5   3.8   0.0   0.0   0.1   0.5   0.6   0.5   0.5  0.58  0.80  0.61  0.00  0.00   57.47   49.94    3.62    0.00    0.00
 2001 325    97     0     0    41.0   24.6   16588   15.5    9.1   0.4   0.4   0.3   0.3   0.3   0.3   1.3   3.8   0.0   0.0   0.1   0.5   0.6   0.5   0.5  0.58  0.75  0.60  0.00  0.00   58.19   50.58    3.62    0.00    0.00
 2001 326    98     0     0    41.0   24.1   16587   15.2    8.9   0.4   0.4   0.3   0.3   0.3   0.3   1.2   3.8   0.0   0.0   0.1   0.4   0.6   0.5   0.5  0.58  0.70  0.60  0.00  0.00   58.93   51.23    3.62    0.00    0.00
 2001 327    99     0     0    41.0   23.7   16587   14.9    8.8   0.4   0.4   0.3   0.3   0.3   0.3   1.0   3.8   0.0   0.0   0.1   0.4   0.6   0.5   0.5  0.58  0.66  0.60  0.00  0.00   59.67   51.89    3.62    0.00    0.00
 2001 328   100     0     0    41.0   23.3   16586   14.7    8.6   0.1   0.3   0.4   0.4   0.3   0.3   0.9   3.8   0.0   0.0   0.1   0.4   0.6   0.5   0.5  0.57  0.63  0.59  0.00  0.00   60.39   52.56    3.62    0.00    0.00
 2001 329   101     0     0    41.0   23.1   16585   14.1    9.0   0.1   0.3   0.3   0.3   0.3   0.3   0.8   3.9   0.0   0.0   0.2   0.5   0.7   0.5   0.5  0.57  0.61  0.59  0.00  0.00   61.14   52.78    3.62    0.00    0.00
 2001 330   102     0     0    41.4   22.6   16585   13.4    9.2   0.1   0.2   0.2   0.2   0.3   0.3   0.7   3.8   0.0   0.0   0.3   0.6   0.7   0.6   0.5  0.57  0.58  0.59  0.00  0.00   61.83   53.04    3.62    0.00    0.00
 2001 331   103     0     0    42.8   21.3   16584   11.8    9.5   0.2   0.2   0.2   0.2   0.2   0.3   0.6   3.3   0.0   0.0   0.4   0.7   0.8   0.6   0.5  0.58  0.58  0.59  0.00  0.00   62.48   53.16    3.64    0.00    0.00
 2001 332   104     0     0    43.4   20.7   16583   11.4    9.4   0.6   0.2   0.2   0.2   0.2   0.2   0.5   3.1   0.0   0.0   0.1   0.7   0.7   0.6   0.5  0.58  0.58  0.58  0.00  0.00   63.12   53.52    3.64    0.00    0.00
 2001 333   105     0     0    43.5   20.4   16583   11.3    9.1   0.2   0.4   0.3   0.2   0.3   0.3   0.5   3.1   0.0   0.0   0.1   0.5   0.7   0.6   0.6  0.58  0.57  0.58  0.00  0.00   63.71   53.85    3.65    0.00    0.00
 2001 334   106     0     0    43.5   20.3   16582   11.0    9.3   0.2   0.3   0.3   0.2   0.3   0.3   0.4   3.0   0.0   0.0   0.2   0.6   0.7   0.6   0.6  0.58  0.55  0.58  0.00  0.00   64.32   54.02    3.65    0.00    0.00
 2001 335   107     0     0    43.7   20.1   16582   10.7    9.4   0.2   0.3   0.3   0.3   0.3   0.3   0.4   3.0   0.0   0.0   0.3   0.7   0.7   0.6   0.6  0.58  0.54  0.58  0.00  0.00   64.92   54.21    3.66    0.00    0.00
 2001 336   108     0     0    43.7   20.0   16581   10.9    9.1   0.5   0.3   0.3   0.3   0.3   0.3   0.3   2.9   0.0   0.0   0.1   0.7   0.7   0.6   0.6  0.57  0.52  0.57  0.00  0.00   65.54   54.62    3.66    0.00    0.00
 2001 337   109     0     0    43.7   19.4   16580   10.7    8.7   0.4   0.4   0.3   0.3   0.3   0.3   0.3   2.8   0.0   0.0   0.1   0.5   0.6   0.6   0.5  0.57  0.51  0.57  0.00  0.00   66.17   55.20    3.66    0.00    0.00
 2001 338   110     0     0    43.7   18.7   16580   10.2    8.5   0.4   0.4   0.3   0.3   0.3   0.3   0.3   2.6   0.0   0.0   0.1   0.5   0.6   0.6   0.5  0.57  0.50  0.56  0.00  0.00   66.77   55.72    3.66    0.00    0.00
 2001 339   111     0     0    43.7   18.2   16579    9.7    8.4   0.4   0.4   0.3   0.3   0.3   0.3   0.3   2.5   0.0   0.0   0.1   0.5   0.6   0.5   0.5  0.57  0.50  0.55  0.00  0.00   67.37   56.21    3.66    0.00    0.00
 2001 340   112     0     0    43.7   17.8   16578    9.4    8.4   0.4   0.4   0.3   0.3   0.3   0.3   0.3   2.3   0.0   0.0   0.1   0.5   0.6   0.5   0.5  0.57  0.49  0.55  0.00  0.00   67.99   56.72    3.66    0.00    0.00
 2001 341   113     0     0    43.7   17.4   16578    9.1    8.3   0.4   0.4   0.3   0.3   0.3   0.3   0.3   2.2   0.0   0.0   0.1   0.5   0.6   0.5   0.5  0.57  0.48  0.53  0.00  0.00   68.61   57.25    3.66    0.00    0.00
 2001 342   114     0     0    43.7   17.0   16577    8.8    8.2   0.4   0.4   0.3   0.3   0.3   0.3   0.3   2.1   0.0   0.0   0.1   0.5   0.6   0.5   0.5  0.57  0.48  0.52  0.00  0.00   69.25   57.79    3.66    0.00    0.00
 2001 343   115     0     0    43.7   16.7   16577    8.5    8.2   0.4   0.4   0.3   0.3   0.3   0.3   0.3   2.0   0.0   0.0   0.1   0.5   0.6   0.5   0.5  0.57  0.47  0.50  0.00  0.00   69.88   58.33    3.66    0.00    0.00
 2001 344   116     0     0    43.7   16.4   16576    8.3    8.1   0.4   0.4   0.3   0.3   0.3   0.3   0.3   1.9   0.0   0.0   0.1   0.5   0.6   0.5   0.5  0.57  0.46  0.49  0.00  0.00   70.52   58.87    3.66    0.00    0.00
 2001 345   117     0     0    43.7   16.1   16575    8.0    8.1   0.4   0.4   0.3   0.3   0.3   0.3   0.3   1.8   0.0   0.0   0.1   0.5   0.6   0.5   0.5  0.57  0.46  0.48  0.00  0.00   71.17   59.41    3.66    0.00    0.00
 2001 346   118     0     0    43.7   15.8   16575    7.8    8.0   0.4   0.4   0.3   0.3   0.3   0.3   0.3   1.7   0.0   0.0   0.1   0.5   0.6   0.5   0.5  0.57  0.45  0.47  0.00  0.00   71.80   59.95    3.66    0.00    0.00
 2001 347   119     0     0    43.7   15.5   16574    7.6    7.9   0.4   0.4   0.3   0.3   0.3   0.3   0.3   1.6   0.0   0.0   0.1   0.5   0.6   0.5   0.5  0.57  0.45  0.45  0.00  0.00   72.42   60.48    3.66    0.00    0.00
 2001 348   120     0     0    43.7   15.3   16573    7.4    7.9   0.4   0.4   0.3   0.3   0.3   0.3   0.3   1.5   0.0   0.0   0.1   0.5   0.6   0.5   0.5  0.57  0.44  0.44  0.00  0.00   73.06   61.04    3.66    0.00    0.00
 2001 349   121     0     0    43.7   15.0   16573    7.2    7.8   0.4   0.4   0.3   0.3   0.3   0.3   0.3   1.4   0.0   0.0   0.1   0.4   0.6   0.5   0.5  0.57  0.43  0.43  0.00  0.00   73.71   61.62    3.66    0.00    0.00
 2001 350   122     0     0    43.7   14.7   16572    7.0    7.7   0.4   0.4   0.3   0.3   0.3   0.3   0.3   1.3   0.0   0.0   0.1   0.4   0.6   0.5   0.5  0.57  0.43  0.42  0.00  0.00   74.34   62.20    3.66    0.00    0.00
 2001 351   123     0     0    43.7   14.5   16572    6.9    7.6   0.4   0.4   0.3   0.3   0.3   0.3   0.3   1.3   0.0   0.0   0.1   0.4   0.6   0.5   0.5  0.56  0.42  0.41  0.00  0.00   74.95   62.76    3.66    0.00    0.00
 2001 352   124     0     0    43.7   14.2   16571    6.7    7.5   0.2   0.4   0.4   0.3   0.3   0.3   0.3   1.2   0.0   0.0   0.1   0.4   0.6   0.5   0.5  0.56  0.42  0.40  0.00  0.00   75.55   63.32    3.66    0.00    0.00
 2001 353   125     0     0    43.7   14.1   16570    6.4    7.7   0.3   0.3   0.3   0.3   0.3   0.3   0.3   1.1   0.0   0.0   0.1   0.5   0.6   0.5   0.5  0.56  0.41  0.39  0.00  0.00   76.23   63.75    3.66    0.00    0.00
 2001 354   126     0     0    43.7   14.1   16570    6.5    7.6   0.4   0.4   0.3   0.3   0.3   0.3   0.3   1.1   0.0   0.0   0.1   0.5   0.6   0.5   0.5  0.56  0.40  0.38  0.00  0.00   76.93   64.39    3.66    0.00    0.00
 2001 355   127     0     0    43.7   13.9   16569    6.4    7.5   0.2   0.4   0.4   0.3   0.3   0.3   0.3   1.0   0.0   0.0   0.1   0.5   0.6   0.5   0.5  0.56  0.40  0.37  0.00  0.00   77.64   65.03    3.66    0.00    0.00
 2001 356   128     0     0    43.7   13.8   16568    5.9    7.9   0.2   0.3   0.3   0.3   0.3   0.3   0.3   1.0   0.0   0.0   0.2   0.6   0.7   0.5   0.5  0.56  0.39  0.36  0.00  0.00   78.34   65.25    3.66    0.00    0.00
 2001 357   129     0     0    43.7   13.8   16567    5.9    7.9   0.5   0.3   0.3   0.3   0.3   0.3   0.3   0.9   0.0   0.0   0.1   0.6   0.7   0.5   0.5  0.56  0.39  0.35  0.00  0.00   79.04   65.68    3.66    0.00    0.00
 2001 358   130     0     0    43.7   13.6   16567    6.0    7.6   0.3   0.4   0.3   0.3   0.3   0.3   0.3   0.9   0.0   0.0   0.1   0.5   0.6   0.5   0.5  0.56  0.38  0.34  0.00  0.00   79.73   66.32    3.66    0.00    0.00
 2001 359   131     0     0    43.7   13.3   16566    5.9    7.5   0.4   0.4   0.3   0.3   0.3   0.3   0.3   0.8   0.0   0.0   0.1   0.5   0.6   0.5   0.5  0.55  0.38  0.33  0.00  0.00   80.42   66.92    3.66    0.00    0.00
 2001 360   132     0     0    43.7   13.2   16565    5.8    7.4   0.4   0.4   0.3   0.3   0.3   0.3   0.3   0.8   0.0   0.0   0.1   0.5   0.6   0.5   0.5  0.55  0.37  0.32  0.00  0.00   81.09   67.50    3.66    0.00    0.00
 2001 361   133     0     0    43.7   13.1   16565    5.7    7.3   0.4   0.4   0.3   0.3   0.3   0.3   0.3   0.7   0.0   0.0   0.1   0.5   0.6   0.5   0.5  0.55  0.36  0.31  0.00  0.00   81.80   68.12    3.66    0.00    0.00
 2001 362   134     0     0    43.7   12.9   16564    5.7    7.3   0.4   0.4   0.3   0.3   0.3   0.3   0.3   0.7   0.0   0.0   0.1   0.5   0.6   0.5   0.5  0.55  0.36  0.30  0.00  0.00   82.53   68.77    3.66    0.00    0.00
 2001 363   135     0     0    43.7   12.8   16563    5.6    7.2   0.4   0.4   0.3   0.3   0.3   0.3   0.3   0.7   0.0   0.0   0.1   0.4   0.6   0.5   0.5  0.55  0.35  0.29  0.00  0.00   83.27   69.43    3.66    0.00    0.00
 2001 364   136     0     0    43.7   12.6   16563    5.5    7.1   0.3   0.5   0.3   0.3   0.3   0.3   0.3   0.6   0.0   0.0   0.1   0.4   0.6   0.5   0.5  0.55  0.35  0.28  0.00  0.00   83.99   70.09    3.66    0.00    0.00
 2001 365   137     0     0    43.7   12.5   16562    5.4    7.1   0.4   0.4   0.3   0.3   0.3   0.3   0.3   0.6   0.0   0.0   0.1   0.4   0.6   0.5   0.5  0.55  0.34  0.27  0.00  0.00   84.75   70.75    3.66    0.00    0.00
 2002 001   138     0     0    43.7   12.4   16561    5.4    7.0   0.5   0.4   0.3   0.3   0.3   0.3   0.3   0.6   0.0   0.0   0.1   0.4   0.6   0.5   0.5  0.55  0.34  0.27  0.00  0.00   85.51   71.45    3.66    0.00    0.00
 2002 002   139     0     0    43.7   12.3   16560    5.3    7.0   0.4   0.4   0.3   0.3   0.3   0.3   0.3   0.5   0.0   0.0   0.1   0.4   0.6   0.5   0.5  0.55  0.33  0.26  0.00  0.00   86.24   72.09    3.66    0.00    0.00
 2002 003   140     0     0    43.7   12.1   16560    5.2    6.9   0.4   0.4   0.3   0.3   0.3   0.3   0.3   0.5   0.0   0.0   0.1   0.4   0.6   0.5   0.5  0.55  0.33  0.25  0.00  0.00   86.92   72.74    3.66    0.00    0.00
 2002 004   141     0     0    43.7   11.9   16559    5.1    6.8   0.4   0.4   0.3   0.3   0.3   0.3   0.3   0.5   0.0   0.0   0.1   0.4   0.6   0.5   0.5  0.55  0.33  0.24  0.00  0.00   87.55   73.33    3.66    0.00    0.00
 2002 005   142     0     0    43.7   11.8   16559    5.1    6.7   0.1   0.3   0.4   0.3   0.3   0.3   0.3   0.5   0.0   0.0   0.1   0.4   0.6   0.5   0.5  0.55  0.32  0.24  0.00  0.00   88.14   73.91    3.66    0.00    0.00
 2002 006   143     0     0    43.7   11.8   16558    4.7    7.1   0.1   0.2   0.3   0.3   0.3   0.3   0.3   0.4   0.0   0.0   0.2   0.5   0.7   0.5   0.5  0.55  0.32  0.23  0.00  0.00   88.83   74.16    3.66    0.00    0.00
 2002 007   144     0     0    43.7   11.9   16557    4.7    7.3   0.4   0.3   0.3   0.3   0.3   0.3   0.3   0.4   0.0   0.0   0.1   0.6   0.7   0.5   0.5  0.54  0.31  0.22  0.00  0.00   89.52   74.51    3.66    0.00    0.00
 2002 008   145     0     0    43.7   12.0   16557    4.8    7.1   0.4   0.4   0.3   0.3   0.3   0.3   0.3   0.4   0.0   0.0   0.1   0.5   0.7   0.5   0.5  0.54  0.31  0.22  0.00  0.00   90.19   75.01    3.66    0.00    0.00
 2002 009   146     0     0    43.7   11.8   16556    4.9    6.9   0.4   0.4   0.3   0.3   0.3   0.3   0.3   0.4   0.0   0.0   0.1   0.5   0.6   0.5   0.5  0.54  0.30  0.21  0.00  0.00   90.87   75.61    3.66    0.00    0.00
 2002 010   147     0     0    43.7   11.7   16555    4.8    6.9   0.4   0.4   0.3   0.3   0.3   0.3   0.3   0.4   0.0   0.0   0.1   0.5   0.6   0.5   0.5  0.54  0.30  0.21  0.00  0.00   91.53   76.17    3.66    0.00    0.00
 2002 011   148     0     0    43.7   11.6   16555    4.8    6.8   0.4   0.4   0.3   0.3   0.3   0.3   0.3   0.4   0.0   0.0   0.1   0.5   0.6   0.5   0.5  0.54  0.30  0.20  0.00  0.00   92.23   76.76    3.66    0.00    0.00
 2002 012   149     0     0    43.7   11.6   16554    4.8    6.8   0.4   0.4   0.3   0.3   0.3   0.3   0.3   0.3   0.0   0.0   0.1   0.5   0.6   0.5   0.5  0.54  0.29  0.19  0.00  0.00   92.95   77.37    3.66    0.00    0.00
 2002 013   150     0     0    43.7   11.5   16553    4.8    6.7   0.3   0.5   0.3   0.3   0.3   0.3   0.3   0.3   0.0   0.0   0.1   0.4   0.6   0.5   0.5  0.54  0.29  0.19  0.00  0.00   93.70   78.02    3.66    0.00    0.00
 2002 014   151     0     0    43.7   11.5   16553    4.8    6.7   0.4   0.4   0.3   0.3   0.3   0.3   0.3   0.3   0.0   0.0   0.1   0.4   0.6   0.5   0.5  0.54  0.29  0.18  0.00  0.00   94.49   78.69    3.66    0.00    0.00
 2002 015   152     0     0    43.7   11.4   16552    4.7    6.7   0.4   0.4   0.3   0.3   0.3   0.3   0.3   0.3   0.0   0.0   0.1   0.4   0.6   0.5   0.5  0.54  0.28  0.18  0.00  0.00   95.27   79.35    3.66    0.00    0.00
 2002 016   153     0     0    43.7   11.3   16551    4.7    6.7   0.4   0.4   0.3   0.3   0.3   0.3   0.3   0.3   0.0   0.0   0.1   0.4   0.6   0.5   0.5  0.54  0.28  0.17  0.00  0.00   96.00   79.96    3.66    0.00    0.00
 2002 017   154     0     0    43.7   11.2   16551    4.6    6.6   0.4   0.4   0.3   0.3   0.3   0.3   0.3   0.3   0.0   0.0   0.1   0.5   0.6   0.5   0.5  0.54  0.28  0.17  0.00  0.00   96.68   80.54    3.66    0.00    0.00
 2002 018   155     0     0    43.7   11.1   16550    4.5    6.6   0.4   0.4   0.3   0.3   0.3   0.3   0.3   0.3   0.0   0.0   0.1   0.5   0.6   0.5   0.5  0.54  0.27  0.17  0.00  0.00   97.31   81.07    3.66    0.00    0.00
 2002 019   156     0     0    43.7   11.0   16549    4.5    6.5   0.4   0.4   0.3   0.3   0.3   0.3   0.3   0.3   0.0   0.0   0.1   0.4   0.6   0.5   0.5  0.54  0.27  0.16  0.00  0.00   97.88   81.57    3.66    0.00    0.00
 2002 020   157     0     0    43.7   11.0   16549    4.5    6.5   0.4   0.4   0.3   0.3   0.3   0.3   0.3   0.3   0.0   0.0   0.1   0.4   0.6   0.5   0.5  0.54  0.27  0.16  0.00  0.00   98.46   82.08    3.66    0.00    0.00
 2002 021   158     0     0    43.7   11.0   16548    4.5    6.4   0.4   0.4   0.3   0.3   0.3   0.3   0.3   0.3   0.0   0.0   0.1   0.4   0.6   0.5   0.4  0.54  0.27  0.15  0.00  0.00   99.06   82.64    3.66    0.00    0.00
 2002 022   159     0     0    43.7   11.6   16548    5.1    6.5   0.3   0.6   0.4   0.3   0.3   0.3   0.3   0.3   0.0   0.0   0.1   0.4   0.6   0.5   0.4  0.55  0.26  0.15  0.00  0.00   99.67   83.21    3.66    0.00    0.00
 2002 023   160     0     0    43.7   12.3   16547    5.6    6.8   0.4   0.6   0.5   0.4   0.3   0.3   0.3   0.3   0.0   0.0   0.1   0.5   0.7   0.5   0.4  0.55  0.26  0.15  0.00  0.00  100.43   83.67    3.66    0.00    0.00

*DSSAT Cropping System Model Ver. 4.0.2.000               Aug 19, 2016; 14:33:09

*RUN   3        : UYMZ                    
 MODEL          : MZCER040 - Maize           
 EXPERIMENT     : UYMZ0218 MZ    late to create DSS                             
 TREATMENT  1   : UYMZ                    

@YEAR DOY   DAS  NAPC  NI#M    NLCC   NIAD    NOAD   NITD   NHTD  NI1D  NI2D  NI3D  NI4D  NI5D  NI6D  NI7D  NI8D  NI9D  NI10  NH1D  NH2D  NH3D  NH4D  NH5D  NH6D  NH7D  NH8D  NH9D  NH10    NMNC    NITC    NDNC    NIMC    AMLC
 2002 228     0     0     0     0.0   99.2   16646   76.3   22.9  15.9  15.2  15.1   8.6   4.6   0.0   0.1   0.1   0.0   0.0   0.7   1.3   1.5   1.4   1.5  1.50  1.47  1.45  0.00  0.00    0.48    1.51    0.00    0.00    0.00
 2002 229     1     0     0     0.0   99.7   16645   77.6   22.2  11.6  17.8  15.2   8.7   4.6   0.0   0.1   0.1   0.0   0.0   0.3   1.2   1.4   1.4   1.4  1.51  1.43  1.41  0.00  0.00    0.97    2.74    0.00    0.00    0.00
 2002 230     2     0     0     0.0  100.3   16645   78.7   21.6   8.4  19.3  15.6   8.8   4.7   0.1   0.1   0.2   0.0   0.0   0.2   1.1   1.4   1.3   1.4  1.51  1.40  1.37  0.00  0.00    1.50    3.89    0.00    0.00    0.00
 2002 231     3     0     0     0.0  100.8   16644   79.6   21.2   4.4  14.9  19.9   9.0   4.8   0.1   0.2   0.2   0.0   0.0   0.1   1.2   1.4   1.3   1.3  1.51  1.37  1.33  0.00  0.00    2.08    4.82    0.00    0.00    0.00
 2002 232     4     0     0     0.0  101.5   16643   80.3   21.1   4.4  14.8  19.5   9.6   4.8   0.1   0.2   0.2   0.0   0.0   0.2   1.2   1.5   1.2   1.3  1.51  1.33  1.28  0.00  0.00    2.69    5.53    0.00    0.00    0.00
 2002 233     5     0     0     0.0  102.1   16643   81.1   20.9   4.5  14.8  19.4   9.8   4.9   0.1   0.3   0.3   0.0   0.0   0.1   1.3   1.6   1.2   1.2  1.52  1.30  1.25  0.00  0.00    3.29    6.32    0.00    0.00    0.00
 2002 234     6     0     0     0.0  102.6   16642   82.3   20.4   5.0  14.9  19.4  10.1   4.9   0.1   0.3   0.3   0.0   0.0   0.1   1.1   1.5   1.2   1.2  1.52  1.27  1.21  0.00  0.00    3.88    7.46    0.00    0.00    0.00
 2002 235     7     0     0     0.0  103.2   16642   83.3   19.9   5.3  15.0  19.4  10.2   5.0   0.1   0.4   0.4   0.0   0.0   0.1   1.0   1.5   1.1   1.2  1.52  1.25  1.17  0.00  0.00    4.44    8.47    0.00    0.00    0.00
 2002 236     8     0     0     0.0  103.7   16641   84.2   19.5   5.7  15.0  19.4  10.4   5.0   0.2   0.4   0.4   0.0   0.0   0.1   0.9   1.5   1.1   1.1  1.53  1.22  1.14  0.00  0.00    4.96    9.40    0.00    0.00    0.00
 2002 237     9     0     0     0.0  104.3   16641   85.2   19.1   6.0  15.1  19.5  10.6   5.1   0.2   0.4   0.5   0.0   0.0   0.1   0.8   1.4   1.1   1.1  1.53  1.19  1.10  0.00  0.00    5.52   10.34    0.00    0.00    0.00
 2002 238    10     0     0     0.0  104.9   16640   86.2   18.7   6.3  15.2  19.5  10.7   5.2   0.2   0.5   0.5   0.0   0.0   0.1   0.8   1.4   1.0   1.1  1.53  1.17  1.07  0.00  0.00    6.16   11.38    0.00    0.00    0.00
 2002 239    11     0     0     0.0  105.6   16639   87.3   18.3   6.7  15.3  19.6  10.9   5.2   0.2   0.5   0.5   0.0   0.0   0.1   0.7   1.4   1.0   1.0  1.53  1.14  1.04  0.00  0.00    6.87   12.50    0.00    0.00    0.00
 2002 240    12     0     0     0.0  106.2   16638   88.3   17.9   3.4  12.6  20.5  13.0   5.3   0.2   0.5   0.6   0.0   0.0   0.1   0.6   1.3   0.9   1.0  1.54  1.11  1.00  0.00  0.00    7.64   13.67    0.00    0.00    0.00
 2002 241    13     0     0     0.0  107.0   16638   89.0   18.0   3.6  12.4  20.2  13.3   5.5   0.3   0.6   0.6   0.0   0.0   0.1   0.7   1.4   0.9   1.0  1.54  1.09  0.97  0.00  0.00    8.44   14.40    0.00    0.00    0.00
 2002 242    14     0     0     0.0  107.8   16637   89.8   18.0   3.8  12.6  20.0  13.2   5.9   0.3   0.6   0.6   0.0   0.0   0.1   0.7   1.6   0.9   0.9  1.54  1.06  0.94  0.00  0.00    9.21   15.21    0.00    0.00    0.00
 2002 243    15     0     0     0.0  108.4   16636   90.5   17.9   4.1  12.6  19.9  13.2   6.1   0.3   0.7   0.7   0.0   0.0   0.1   0.6   1.6   1.0   0.9  1.55  1.04  0.91  0.00  0.00    9.89   15.91    0.00    0.00    0.00
 2002 244    16     0     0     0.0  109.0   16636   91.1   17.9   4.6  12.5  19.9  13.2   6.1   0.3   0.7   0.7   0.0   0.0   0.1   0.6   1.7   1.0   0.9  1.55  1.02  0.89  0.00  0.00   10.47   16.51    0.00    0.00    0.00
 2002 245    17     0     0     0.0  109.5   16635   91.8   17.6   5.0  12.5  20.0  13.3   6.2   0.3   0.7   0.7   0.0   0.0   0.1   0.6   1.7   0.9   0.9  1.55  1.00  0.86  0.00  0.00   10.96   17.26    0.00    0.00    0.00
 2002 246    18     0     0     0.0  109.9   16635   92.5   17.4   5.4  12.4  20.1  13.3   6.3   0.3   0.7   0.8   0.0   0.0   0.1   0.6   1.6   0.9   0.9  1.55  0.98  0.84  0.00  0.00   11.38   17.92    0.00    0.00    0.00
 2002 247    19     0     0     0.0  110.3   16634   93.1   17.2   5.8  12.4  20.2  13.3   6.3   0.4   0.8   0.8   0.0   0.0   0.1   0.5   1.6   0.9   0.8  1.55  0.96  0.82  0.00  0.00   11.78   18.55    0.00    0.00    0.00
 2002 248    20     0     0     0.0  110.7   16634   93.7   17.0   6.1  12.4  20.2  13.3   6.4   0.4   0.8   0.8   0.0   0.0   0.1   0.5   1.6   0.9   0.8  1.56  0.94  0.79  0.00  0.00   12.20   19.19    0.00    0.00    0.00
 2002 249    21     0     0     0.0  111.2   16633   94.4   16.8   5.7  12.7  20.3  13.4   6.4   0.4   0.8   0.8   0.0   0.0   0.1   0.5   1.5   0.9   0.8  1.56  0.93  0.77  0.00  0.00   12.67   19.87    0.00    0.00    0.00
 2002 250    22     0     0     0.0  111.7   16633   95.1   16.6   5.6  12.8  20.5  13.4   6.5   0.4   0.9   0.9   0.0   0.0   0.2   0.5   1.5   0.9   0.8  1.56  0.91  0.75  0.00  0.00   13.17   20.52    0.00    0.00    0.00
[...]
 2010 298    70     0     0     4.1   74.9   16607   58.0   17.0   0.7   1.0   1.3   4.9   6.7   4.8   3.4   1.9   0.0   0.0   0.1   0.4   0.7   0.6   0.6  2.23  1.05  0.62  0.00  0.00   39.15   43.61    2.54    0.00    0.00
 2010 299    71     0     0     4.1   71.6   16606   54.8   16.8   0.6   0.8   0.9   4.3   6.0   4.9   3.4   1.9   0.0   0.0   0.1   0.4   0.7   0.5   0.6  2.23  1.06  0.62  0.00  0.00   39.73   44.21    2.54    0.00    0.00
 2010 300    72     0     0     4.1   68.4   16606   51.8   16.6   0.2   0.6   0.8   3.8   5.3   4.9   3.4   1.9   0.0   0.0   0.1   0.4   0.6   0.5   0.6  2.22  1.06  0.62  0.00  0.00   40.27   44.76    2.54    0.00    0.00
 2010 301    73     0     0     4.1   65.6   16605   49.0   16.6   0.3   0.5   0.6   3.3   4.7   4.8   3.4   1.9   0.0   0.0   0.1   0.5   0.6   0.5   0.6  2.18  1.06  0.61  0.00  0.00   40.88   45.20    2.55    0.00    0.00
 2010 302    74     0     0     4.1   61.4   16605   45.3   16.1   0.4   0.4   0.4   2.7   3.9   4.6   3.4   1.9   0.0   0.0   0.1   0.5   0.6   0.5   0.6  2.08  1.06  0.61  0.00  0.00   41.52   45.79    2.55    0.00    0.00
 2010 303    75     0     0     4.1   60.6   16604   44.6   16.0   0.4   0.5   0.4   2.7   3.8   4.5   3.4   1.9   0.0   0.0   0.1   0.5   0.7   0.5   0.6  2.04  1.06  0.61  0.00  0.00   42.14   46.36    2.55    0.00    0.00
 2010 304    76     0     0     4.1   55.6   16603   40.5   15.2   0.4   0.4   0.3   2.2   3.2   4.0   3.4   1.9   0.0   0.0   0.1   0.5   0.6   0.5   0.5  1.87  1.06  0.61  0.00  0.00   42.75   46.93    2.55    0.00    0.00
 2010 305    77     0     0     4.1   51.8   16603   37.3   14.5   0.4   0.4   0.3   1.9   2.7   3.6   3.4   1.9   0.0   0.0   0.1   0.5   0.6   0.5   0.5  1.72  1.06  0.60  0.00  0.00   43.36   47.49    2.56    0.00    0.00
 2010 306    78     0     0     4.1   47.7   16602   34.0   13.8   0.4   0.4   0.3   1.5   2.3   3.1   3.4   1.9   0.0   0.0   0.1   0.5   0.6   0.5   0.5  1.55  1.06  0.60  0.00  0.00   43.96   48.05    2.56    0.00    0.00
 2010 307    79     0     0     4.1   43.5   16602   30.5   13.0   0.4   0.4   0.3   1.2   1.8   2.6   3.5   2.0   0.0   0.0   0.1   0.5   0.6   0.5   0.5  1.38  1.06  0.60  0.00  0.00   44.54   48.61    2.56    0.00    0.00
 2010 308    80     0     0     4.1   39.8   16601   27.5   12.3   0.4   0.4   0.3   0.9   1.4   2.2   3.5   2.0   0.0   0.0   0.1   0.5   0.6   0.5   0.5  1.23  1.06  0.59  0.00  0.00   45.14   49.18    2.56    0.00    0.00
 2010 309    81     0     0     4.1   36.9   16601   25.1   11.7   0.4   0.4   0.3   0.7   1.1   1.8   3.5   2.0   0.0   0.0   0.1   0.4   0.6   0.5   0.5  1.10  1.06  0.59  0.00  0.00   45.76   49.77    2.57    0.00    0.00
 2010 310    82     0     0     4.1   34.5   16600   23.2   11.3   0.2   0.4   0.4   0.6   0.9   1.5   3.5   2.0   0.0   0.0   0.1   0.4   0.5   0.5   0.5  1.00  1.06  0.59  0.00  0.00   46.36   50.37    2.57    0.00    0.00
 2010 311    83     0     0     4.1   32.7   16599   21.5   11.2   0.2   0.3   0.3   0.5   0.7   1.2   3.5   2.0   0.0   0.0   0.2   0.5   0.6   0.5   0.5  0.92  1.06  0.58  0.00  0.00   47.11   50.76    2.57    0.00    0.00
 2010 312    84     0     0     4.1   31.5   16598   20.7   10.8   0.5   0.4   0.4   0.4   0.6   1.0   3.5   2.0   0.0   0.0   0.0   0.5   0.6   0.5   0.5  0.86  1.06  0.58  0.00  0.00   47.87   51.53    2.57    0.00    0.00
 2010 313    85     0     0     4.1   30.2   16598   19.3   10.9   0.3   0.3   0.3   0.4   0.5   0.9   3.5   2.0   0.0   0.0   0.2   0.6   0.7   0.5   0.5  0.81  1.06  0.58  0.00  0.00   48.68   51.84    2.57    0.00    0.00
 2010 314    86     0     0     4.1   29.5   16597   18.6   10.8   0.3   0.3   0.3   0.3   0.4   0.7   3.6   2.0   0.0   0.0   0.3   0.7   0.7   0.5   0.5  0.76  1.04  0.58  0.00  0.00   49.41   52.22    2.57    0.00    0.00
 2010 315    87     0     0     4.1   28.7   16596   18.5   10.2   0.7   0.4   0.3   0.3   0.4   0.6   3.6   2.0   0.0   0.0   0.1   0.5   0.6   0.5   0.5  0.73  1.02  0.57  0.00  0.00   50.12   53.07    2.57    0.00    0.00
 2010 316    88     0     0     4.1   27.9   16596   17.9   10.0   0.3   0.4   0.3   0.3   0.3   0.5   3.6   2.0   0.0   0.0   0.1   0.5   0.6   0.5   0.5  0.70  1.00  0.57  0.00  0.00   50.80   53.62    2.58    0.00    0.00
 2010 317    89     0     0     4.1   27.4   16595   17.6    9.8   0.4   0.4   0.3   0.3   0.3   0.4   3.6   2.0   0.0   0.0   0.1   0.5   0.6   0.5   0.5  0.67  0.98  0.57  0.00  0.00   51.41   54.16    2.58    0.00    0.00
 2010 318    90     0     0     4.1   27.0   16595   17.3    9.7   0.4   0.4   0.3   0.3   0.3   0.3   3.7   2.0   0.0   0.0   0.1   0.5   0.6   0.5   0.5  0.65  0.96  0.57  0.00  0.00   51.95   54.64    2.58    0.00    0.00
 2010 319    91     0     0     4.1   26.7   16594   17.2    9.5   0.4   0.4   0.3   0.3   0.3   0.3   3.7   2.0   0.0   0.0   0.1   0.5   0.6   0.5   0.5  0.63  0.94  0.56  0.00  0.00   52.53   55.14    2.58    0.00    0.00
 2010 320    92     0     0     4.1   26.5   16594   17.1    9.4   0.4   0.4   0.3   0.3   0.3   0.3   3.7   2.0   0.0   0.0   0.1   0.5   0.6   0.5   0.5  0.62  0.92  0.56  0.00  0.00   53.09   55.65    2.58    0.00    0.00
 2010 321    93     0     0     4.1   26.5   16593   17.2    9.3   0.4   0.4   0.3   0.3   0.3   0.3   3.8   2.1   0.0   0.0   0.1   0.5   0.6   0.5   0.4  0.60  0.91  0.56  0.00  0.00   53.64   56.16    2.58    0.00    0.00
 2010 322    94     0     0     4.1   26.5   16592   17.3    9.1   0.4   0.4   0.3   0.3   0.3   0.3   3.8   2.1   0.0   0.0   0.1   0.5   0.6   0.5   0.4  0.59  0.89  0.55  0.00  0.00   54.18   56.68    2.58    0.00    0.00
 2010 323    95     0     0     4.1   26.4   16592   17.4    9.0   0.4   0.4   0.3   0.3   0.3   0.3   3.8   2.1   0.0   0.0   0.1   0.4   0.6   0.5   0.4  0.59  0.87  0.55  0.00  0.00   54.70   57.20    2.58    0.00    0.00
 2010 324    96     0     0     4.1   26.4   16591   17.5    8.9   0.2   0.4   0.4   0.3   0.3   0.3   3.8   2.1   0.0   0.0   0.1   0.4   0.6   0.5   0.4  0.58  0.86  0.55  0.00  0.00   55.22   57.71    2.58    0.00    0.00
 2010 325    97     0     0     4.1   26.4   16591   17.4    9.1   0.2   0.3   0.3   0.3   0.3   0.3   3.9   2.1   0.0   0.0   0.2   0.5   0.6   0.5   0.4  0.57  0.84  0.55  0.00  0.00   55.85   58.07    2.58    0.00    0.00
 2010 326    98     0     0     4.1   26.6   16590   17.8    8.9   0.5   0.4   0.3   0.3   0.3   0.3   3.9   2.1   0.0   0.0   0.1   0.5   0.6   0.5   0.4  0.57  0.83  0.55  0.00  0.00   56.51   58.75    2.58    0.00    0.00
 2010 327    99     0     0     4.1   26.6   16590   17.8    8.8   0.4   0.4   0.3   0.3   0.3   0.3   3.9   2.1   0.0   0.0   0.1   0.5   0.6   0.5   0.4  0.56  0.81  0.54  0.00  0.00   57.16   59.32    2.58    0.00    0.00
 2010 328   100     0     0     4.1   25.5   16589   16.9    8.6   0.4   0.4   0.3   0.3   0.3   0.3   3.5   2.1   0.0   0.0   0.1   0.5   0.6   0.4   0.4  0.56  0.77  0.54  0.00  0.00   57.80   59.91    2.58    0.00    0.00
 2010 329   101     0     0     4.1   24.4   16588   15.9    8.5   0.4   0.4   0.3   0.3   0.3   0.3   3.1   2.1   0.0   0.0   0.1   0.5   0.6   0.4   0.4  0.56  0.72  0.54  0.00  0.00   58.45   60.51    2.58    0.00    0.00
 2010 330   102     0     0     4.1   23.3   16588   15.0    8.3   0.4   0.4   0.3   0.3   0.3   0.3   2.8   2.1   0.0   0.0   0.1   0.5   0.6   0.4   0.4  0.56  0.68  0.54  0.00  0.00   59.07   61.10    2.58    0.00    0.00
 2010 331   103     0     0     4.1   22.4   16587   14.2    8.1   0.4   0.4   0.3   0.3   0.3   0.3   2.4   2.1   0.0   0.0   0.1   0.4   0.6   0.4   0.4  0.55  0.65  0.53  0.00  0.00   59.66   61.69    2.59    0.00    0.00
 2010 332   104     0     0     4.1   21.6   16587   13.6    8.0   0.4   0.4   0.3   0.3   0.3   0.3   2.1   2.1   0.0   0.0   0.1   0.4   0.5   0.4   0.4  0.55  0.62  0.53  0.00  0.00   60.26   62.31    2.59    0.00    0.00
 2010 333   105     0     0     4.1   20.8   16586   12.9    7.9   0.4   0.4   0.3   0.3   0.3   0.3   1.9   2.1   0.0   0.0   0.1   0.4   0.5   0.4   0.4  0.55  0.60  0.53  0.00  0.00   60.85   62.88    2.59    0.00    0.00
 2010 334   106     0     0     4.1   20.1   16586   12.4    7.7   0.2   0.4   0.4   0.3   0.3   0.3   1.7   2.1   0.0   0.0   0.1   0.4   0.5   0.4   0.4  0.55  0.58  0.51  0.00  0.00   61.40   63.44    2.59    0.00    0.00
 2010 335   107     0     0     4.1   19.7   16585   11.8    7.9   0.4   0.3   0.3   0.3   0.3   0.3   1.5   2.2   0.0   0.0   0.1   0.5   0.6   0.4   0.4  0.55  0.56  0.50  0.00  0.00   62.07   63.89    2.59    0.00    0.00
 2010 336   108     0     0     4.1   19.4   16584   11.6    7.8   0.4   0.4   0.3   0.3   0.3   0.3   1.3   2.2   0.0   0.0   0.1   0.5   0.6   0.4   0.4  0.54  0.54  0.49  0.00  0.00   62.74   64.51    2.59    0.00    0.00
 2010 337   109     0     0     4.1   19.0   16584   11.3    7.7   0.4   0.4   0.3   0.3   0.3   0.3   1.1   2.2   0.0   0.0   0.1   0.5   0.6   0.4   0.4  0.54  0.53  0.48  0.00  0.00   63.40   65.13    2.59    0.00    0.00
 2010 338   110     0     0     4.1   18.6   16583   11.1    7.5   0.4   0.4   0.3   0.3   0.3   0.3   1.0   2.2   0.0   0.0   0.1   0.5   0.6   0.4   0.4  0.54  0.52  0.46  0.00  0.00   64.08   65.79    2.59    0.00    0.00
 2010 339   111     0     0     4.1   18.3   16582   10.9    7.4   0.4   0.4   0.3   0.3   0.3   0.3   0.9   2.2   0.0   0.0   0.1   0.4   0.6   0.4   0.4  0.54  0.51  0.45  0.00  0.00   64.76   66.49    2.59    0.00    0.00
 2010 340   112     0     0     4.1   17.9   16582   10.6    7.3   0.4   0.4   0.3   0.3   0.3   0.3   0.8   2.2   0.0   0.0   0.1   0.4   0.6   0.4   0.4  0.54  0.50  0.44  0.00  0.00   65.40   67.17    2.59    0.00    0.00
 2010 341   113     0     0     4.1   17.6   16581   10.4    7.1   0.2   0.4   0.4   0.3   0.3   0.3   0.7   2.3   0.0   0.0   0.1   0.4   0.5   0.4   0.4  0.54  0.49  0.43  0.00  0.00   65.99   67.81    2.59    0.00    0.00
 2010 342   114     0     0     4.1   17.4   16580   10.0    7.4   0.2   0.3   0.3   0.3   0.3   0.3   0.6   2.3   0.0   0.0   0.2   0.5   0.6   0.4   0.4  0.54  0.48  0.42  0.00  0.00   66.73   68.23    2.59    0.00    0.00
 2010 343   115     0     0     4.1   17.3   16580   10.1    7.2   0.6   0.5   0.3   0.3   0.3   0.3   0.6   2.2   0.0   0.0   0.0   0.5   0.6   0.4   0.3  0.54  0.47  0.41  0.00  0.00   67.46   69.06    2.59    0.00    0.00
 2010 344   116     0     0     4.1   16.7   16579    9.5    7.2   0.2   0.4   0.3   0.3   0.3   0.3   0.5   2.1   0.0   0.0   0.2   0.5   0.6   0.4   0.3  0.54  0.46  0.40  0.00  0.00   68.17   69.64    2.59    0.00    0.00
 2010 345   117     0     0     4.1   16.3   16578    9.3    7.0   0.6   0.4   0.3   0.3   0.3   0.3   0.5   2.0   0.0   0.0   0.0   0.4   0.6   0.4   0.3  0.53  0.45  0.39  0.00  0.00   68.87   70.43    2.59    0.00    0.00
 2010 346   118     0     0     4.1   15.7   16578    8.8    7.0   0.3   0.4   0.3   0.3   0.3   0.3   0.4   1.9   0.0   0.0   0.2   0.4   0.6   0.4   0.3  0.53  0.45  0.38  0.00  0.00   69.56   71.01    2.59    0.00    0.00
 2010 347   119     0     0     4.1   15.3   16577    8.5    6.8   0.5   0.4   0.3   0.3   0.3   0.3   0.4   1.8   0.0   0.0   0.1   0.4   0.6   0.4   0.3  0.53  0.44  0.37  0.00  0.00   70.18   71.67    2.59    0.00    0.00
 2010 348   120     0     0     4.1   14.8   16577    8.0    6.8   0.3   0.4   0.3   0.3   0.3   0.3   0.3   1.7   0.0   0.0   0.1   0.4   0.5   0.4   0.3  0.53  0.43  0.36  0.00  0.00   70.76   72.20    2.59    0.00    0.00
 2010 349   121     0     0     4.1   14.5   16576    7.8    6.7   0.3   0.4   0.4   0.3   0.3   0.3   0.3   1.6   0.0   0.0   0.1   0.4   0.5   0.3   0.3  0.53  0.42  0.36  0.00  0.00   71.31   72.79    2.59    0.00    0.00
 2010 350   122     0     0     4.1   14.2   16575    7.3    6.9   0.4   0.3   0.3   0.3   0.3   0.3   0.3   1.5   0.0   0.0   0.1   0.5   0.6   0.3   0.3  0.53  0.41  0.35  0.00  0.00   71.96   73.18    2.59    0.00    0.00
 2010 351   123     0     0     4.1   14.0   16575    7.3    6.8   0.4   0.5   0.3   0.3   0.3   0.3   0.3   1.4   0.0   0.0   0.1   0.5   0.6   0.3   0.3  0.53  0.41  0.34  0.00  0.00   72.60   73.80    2.59    0.00    0.00
 2010 352   124     0     0     4.1   13.8   16574    7.1    6.7   0.4   0.4   0.4   0.3   0.3   0.3   0.3   1.3   0.0   0.0   0.1   0.5   0.6   0.3   0.3  0.53  0.40  0.33  0.00  0.00   73.30   74.45    2.59    0.00    0.00
 2010 353   125     0     0     4.1   13.6   16573    6.8    6.8   0.4   0.3   0.4   0.3   0.3   0.3   0.3   1.3   0.0   0.0   0.1   0.6   0.6   0.3   0.3  0.53  0.39  0.33  0.00  0.00   74.03   74.96    2.59    0.00    0.00
 2010 354   126     0     0     4.1   13.5   16573    6.6    6.9   0.3   0.3   0.3   0.3   0.3   0.3   0.3   1.2   0.0   0.0   0.3   0.7   0.6   0.3   0.3  0.53  0.38  0.32  0.00  0.00   74.74   75.35    2.59    0.00    0.00
 2010 355   127     0     0     4.1   13.3   16572    6.8    6.5   0.7   0.5   0.3   0.3   0.3   0.3   0.3   1.1   0.0   0.0   0.0   0.5   0.6   0.3   0.3  0.53  0.38  0.31  0.00  0.00   75.43   76.20    2.59    0.00    0.00
 2010 356   128     0     0     4.1   12.9   16571    6.4    6.5   0.3   0.4   0.3   0.3   0.3   0.3   0.3   1.1   0.0   0.0   0.2   0.5   0.6   0.3   0.3  0.52  0.37  0.30  0.00  0.00   76.12   76.72    2.59    0.00    0.00
 2010 357   129     0     0     4.1   12.8   16571    6.4    6.4   0.5   0.4   0.3   0.3   0.3   0.3   0.3   1.0   0.0   0.0   0.1   0.5   0.6   0.3   0.3  0.52  0.36  0.29  0.00  0.00   76.79   77.39    2.59    0.00    0.00
 2010 358   130     0     0     4.1   12.5   16570    6.2    6.4   0.0   0.2   0.3   0.3   0.4   0.3   0.3   0.9   0.0   0.0   0.1   0.4   0.6   0.3   0.3  0.52  0.36  0.29  0.00  0.00   77.42   77.96    2.59    0.00    0.00
 2010 359   131     0     0     4.1   12.6   16569    5.7    6.9   0.0   0.3   0.3   0.3   0.3   0.3   0.3   0.9   0.0   0.0   0.3   0.6   0.7   0.4   0.3  0.53  0.35  0.28  0.00  0.00   78.18   78.11    2.59    0.00    0.00
 2010 360   132     0     0     4.1   12.7   16569    5.7    7.0   0.5   0.3   0.3   0.3   0.3   0.3   0.3   0.8   0.0   0.0   0.0   0.7   0.7   0.4   0.4  0.53  0.34  0.27  0.00  0.00   79.01   78.57    2.59    0.00    0.00
 2010 361   133     0     0     4.1   12.7   16568    6.0    6.8   0.3   0.5   0.4   0.3   0.3   0.3   0.3   0.8   0.0   0.0   0.2   0.5   0.6   0.4   0.4  0.53  0.34  0.27  0.00  0.00   79.85   79.28    2.59    0.00    0.00
 2010 362   134     0     0     4.1   12.6   16567    6.0    6.6   0.6   0.4   0.3   0.3   0.3   0.3   0.3   0.8   0.0   0.0   0.0   0.4   0.6   0.4   0.4  0.54  0.33  0.26  0.00  0.00   80.70   80.09    2.59    0.00    0.00
 2010 363   135     0     0     4.1   12.4   16566    5.6    6.8   0.3   0.4   0.3   0.3   0.3   0.3   0.3   0.7   0.0   0.0   0.2   0.4   0.6   0.5   0.4  0.54  0.32  0.25  0.00  0.00   81.55   80.67    2.59    0.00    0.00
 2010 364   136     0     0     4.1   12.4   16566    5.8    6.7   0.6   0.4   0.3   0.3   0.3   0.3   0.3   0.7   0.0   0.0   0.0   0.4   0.6   0.5   0.4  0.54  0.32  0.25  0.00  0.00   82.40   81.47    2.59    0.00    0.00
 2010 365   137     0     0     4.1   12.2   16565    5.5    6.8   0.3   0.4   0.3   0.3   0.3   0.3   0.3   0.6   0.0   0.0   0.2   0.4   0.6   0.5   0.4  0.54  0.31  0.24  0.00  0.00   83.22   82.05    2.59    0.00    0.00
 2011 001   138     0     0     4.1   12.2   16564    5.5    6.7   0.6   0.4   0.3   0.3   0.3   0.3   0.3   0.6   0.0   0.0   0.0   0.4   0.6   0.5   0.4  0.55  0.31  0.23  0.00  0.00   83.99   82.78    2.59    0.00    0.00
 2011 002   139     0     0     4.1   12.0   16563    5.3    6.7   0.3   0.4   0.3   0.3   0.3   0.3   0.3   0.6   0.0   0.0   0.1   0.4   0.6   0.5   0.4  0.55  0.30  0.23  0.00  0.00   84.71   83.33    2.59    0.00    0.00
 2011 003   140     0     0     4.1   11.9   16563    5.3    6.6   0.5   0.4   0.3   0.3   0.3   0.3   0.3   0.5   0.0   0.0   0.0   0.4   0.6   0.5   0.4  0.55  0.30  0.22  0.00  0.00   85.40   83.96    2.59    0.00    0.00
 2011 004   141     0     0     4.1   11.8   16562    5.1    6.6   0.3   0.4   0.3   0.3   0.3   0.3   0.3   0.5   0.0   0.0   0.1   0.4   0.6   0.5   0.4  0.55  0.29  0.22  0.00  0.00   86.06   84.48    2.59    0.00    0.00
 2011 005   142     0     0     4.1   11.7   16562    5.1    6.6   0.4   0.4   0.3   0.3   0.3   0.3   0.3   0.5   0.0   0.0   0.1   0.4   0.6   0.5   0.4  0.55  0.29  0.21  0.00  0.00   86.69   85.06    2.59    0.00    0.00
 2011 006   143     0     0     4.1   11.5   16561    5.0    6.5   0.1   0.4   0.4   0.3   0.3   0.3   0.3   0.5   0.0   0.0   0.1   0.4   0.6   0.5   0.4  0.55  0.28  0.21  0.00  0.00   87.30   85.58    2.59    0.00    0.00
 2011 007   144     0     0     4.1   11.5   16560    4.8    6.7   0.3   0.3   0.3   0.3   0.3   0.3   0.3   0.4   0.0   0.0   0.1   0.5   0.6   0.5   0.4  0.55  0.28  0.20  0.00  0.00   88.02   86.01    2.59    0.00    0.00
 2011 008   145     0     0     4.1   11.7   16560    5.1    6.7   0.5   0.4   0.3   0.3   0.3   0.3   0.3   0.4   0.0   0.0   0.1   0.5   0.6   0.5   0.4  0.55  0.27  0.20  0.00  0.00   88.78   86.69    2.59    0.00    0.00
 2011 009   146     0     0     4.1   11.6   16559    5.0    6.6   0.4   0.4   0.3   0.3   0.3   0.3   0.3   0.4   0.0   0.0   0.1   0.5   0.6   0.5   0.4  0.55  0.27  0.19  0.00  0.00   89.57   87.39    2.59    0.00    0.00
 2011 010   147     0     0     4.1   11.5   16558    5.0    6.5   0.3   0.5   0.4   0.3   0.3   0.3   0.3   0.4   0.0   0.0   0.1   0.4   0.6   0.5   0.4  0.55  0.27  0.19  0.00  0.00   90.33   88.12    2.59    0.00    0.00
 2011 011   148     0     0     4.1   11.5   16557    4.7    6.8   0.3   0.3   0.4   0.3   0.3   0.3   0.3   0.4   0.0   0.0   0.2   0.6   0.6   0.5   0.4  0.55  0.26  0.18  0.00  0.00   91.14   88.56    2.59    0.00    0.00
 2011 012   149     0     0     4.1   11.6   16557    5.1    6.5   0.5   0.4   0.3   0.4   0.3   0.3   0.3   0.3   0.0   0.0   0.0   0.5   0.6   0.5   0.4  0.55  0.26  0.18  0.00  0.00   91.94   89.44    2.59    0.00    0.00
 2011 013   150     0     0     4.1   11.4   16556    4.4    7.0   0.2   0.3   0.3   0.3   0.3   0.3   0.3   0.3   0.0   0.0   0.2   0.6   0.7   0.5   0.4  0.55  0.25  0.18  0.00  0.00   92.74   89.64    2.59    0.00    0.00
 2011 014   151     0     0     4.1   11.6   16555    4.7    6.9   0.6   0.5   0.3   0.3   0.3   0.3   0.3   0.3   0.0   0.0   0.1   0.5   0.7   0.5   0.4  0.55  0.25  0.17  0.00  0.00   93.54   90.24    2.59    0.00    0.00
 2011 015   152     0     0     4.1   11.5   16555    4.7    6.8   0.4   0.4   0.3   0.3   0.3   0.3   0.3   0.3   0.0   0.0   0.1   0.5   0.6   0.5   0.4  0.55  0.25  0.17  0.00  0.00   94.33   90.86    2.59    0.00    0.00
 2011 016   153     0     0     4.1   11.4   16554    4.8    6.7   0.5   0.4   0.3   0.3   0.3   0.3   0.3   0.3   0.0   0.0   0.1   0.5   0.6   0.5   0.5  0.55  0.25  0.16  0.00  0.00   95.14   91.56    2.59    0.00    0.00
 2011 017   154     0     0     4.1   11.4   16553    4.7    6.7   0.4   0.4   0.3   0.3   0.3   0.3   0.3   0.3   0.0   0.0   0.1   0.5   0.6   0.5   0.5  0.55  0.24  0.16  0.00  0.00   95.98   92.24    2.59    0.00    0.00
 2011 018   155     0     0     4.1   11.3   16552    4.7    6.6   0.5   0.4   0.3   0.3   0.3   0.3   0.3   0.3   0.0   0.0   0.1   0.5   0.6   0.5   0.5  0.55  0.24  0.16  0.00  0.00   96.82   92.96    2.59    0.00    0.00
 2011 019   156     0     0     4.1   12.2   16552    5.4    6.8   0.6   0.6   0.4   0.4   0.3   0.3   0.3   0.3   0.0   0.0   0.1   0.4   0.7   0.5   0.5  0.55  0.24  0.15  0.00  0.00   97.67   93.65    2.59    0.00    0.00
 2011 020   157     0     0     4.1   13.0   16551    6.2    6.8   0.8   0.8   0.5   0.4   0.4   0.3   0.3   0.3   0.0   0.0   0.1   0.4   0.7   0.5   0.5  0.56  0.23  0.15  0.00  0.00   98.51   94.41    2.59    0.00    0.00
