*WATER BALANCE OUTPUT FILE

*DSSAT Cropping System Model Ver. 4.0.2.000               Aug 23, 2016; 19:07:14

*RUN   1        : UYSB                    
 MODEL          : CRGRO040 - Soybean         
 EXPERIMENT     : UYSB0375 SB    late to create DSS                             
 TREATMENT  1   : UYSB                    


     WATER BALANCE PARAMETERS
     ========================                  --mm--

     Soil H20 (start) on Year/day 1999/232     490.84
     Soil H20 (final) on Year/day 2000/037     510.22
     Effective Irrigation                      380.79
     Precipitation                             323.30
     Drainage                                   38.28
     Runoff                                      0.08
     Soil Evaporation                          303.75
     Transpiration                             342.60
     Potential ET                              842.22

     Final Balance                             0.0003


*DSSAT Cropping System Model Ver. 4.0.2.000               Aug 23, 2016; 19:07:14

*RUN   2        : UYSB                    
 MODEL          : CRGRO040 - Soybean         
 EXPERIMENT     : UYSB0375 SB    late to create DSS                             
 TREATMENT  1   : UYSB                    


     WATER BALANCE PARAMETERS
     ========================                  --mm--

     Soil H20 (start) on Year/day 2000/232     490.84
     Soil H20 (final) on Year/day 2001/039     556.20
     Effective Irrigation                      128.41
     Precipitation                             812.20
     Drainage                                  232.82
     Runoff                                      1.60
     Soil Evaporation                          336.12
     Transpiration                             304.71
     Potential ET                              804.80

     Final Balance                             0.0000


*DSSAT Cropping System Model Ver. 4.0.2.000               Aug 23, 2016; 19:07:14

*RUN   3        : UYSB                    
 MODEL          : CRGRO040 - Soybean         
 EXPERIMENT     : UYSB0375 SB    late to create DSS                             
 TREATMENT  1   : UYSB                    


     WATER BALANCE PARAMETERS
     ========================                  --mm--

     Soil H20 (start) on Year/day 2001/232     490.84
     Soil H20 (final) on Year/day 2002/032     563.00
     Effective Irrigation                      197.52
     Precipitation                            1055.30
     Drainage                                  524.32
     Runoff                                     73.52
     Soil Evaporation                          304.80
     Transpiration                             278.02
     Potential ET                              750.38

     Final Balance                             0.0002


*DSSAT Cropping System Model Ver. 4.0.2.000               Aug 23, 2016; 19:07:14

*RUN   4        : UYSB                    
 MODEL          : CRGRO040 - Soybean         
 EXPERIMENT     : UYSB0375 SB    late to create DSS                             
 TREATMENT  1   : UYSB                    


     WATER BALANCE PARAMETERS
     ========================                  --mm--

     Soil H20 (start) on Year/day 2002/232     490.84
     Soil H20 (final) on Year/day 2003/028     510.34
     Effective Irrigation                       74.74
     Precipitation                            1277.10
     Drainage                                  639.01
     Runoff                                    158.57
     Soil Evaporation                          305.95
     Transpiration                             228.82
     Potential ET                              726.32

     Final Balance                             0.0000


*DSSAT Cropping System Model Ver. 4.0.2.000               Aug 23, 2016; 19:07:14

*RUN   5        : UYSB                    
 MODEL          : CRGRO040 - Soybean         
 EXPERIMENT     : UYSB0375 SB    late to create DSS                             
 TREATMENT  1   : UYSB                    


     WATER BALANCE PARAMETERS
     ========================                  --mm--

     Soil H20 (start) on Year/day 2003/232     490.84
     Soil H20 (final) on Year/day 2004/041     519.98
     Effective Irrigation                      156.99
     Precipitation                             646.70
     Drainage                                  139.93
     Runoff                                      2.04
     Soil Evaporation                          315.69
     Transpiration                             316.90
     Potential ET                              845.39

     Final Balance                             0.0002

