*GROWTH ASPECTS OUTPUT FILE

*DSSAT Cropping System Model Ver. 4.0.2.000               Aug 01, 2016; 14:59:40

*RUN   1        : UYMZ                    
 MODEL          : MZCER040 - Maize           
 EXPERIMENT     : UYMZ0097 MZ    late to create DSS                             
 TREATMENT  1   : UYMZ                    

@YEAR DOY   DAS   DAP   L#SD   GSTD   LAID   LWAD   SWAD   GWAD   RWAD   CWAD   G#AD   GWGD   HIAD   PWAD   P#AD   WSPD   WSGD   NSTD   EWSD   LN%D   SH%D   HIPD   PWDD   PWTD     SLAD   CHTD   CWID   RDPD   RL1D   RL2D   RL3D   RL4D   RL5D   RL6D   RL7D   RL8D   RL9D   RL10   CDAD   LDAD   SDAD   SNW0C   SNW1C
 1990 187     3     0    0.0      0   0.00      0      0      0      0      0      0    0.0  0.000      0      0  0.000  0.000  0.000  0.000   0.00   0.00   0.00      0      0      0.0   0.00   0.00   0.03   0.00   0.00   0.00   0.00   0.00   0.00   0.00   0.00   0.00   0.00      0      0      0       0       0
 1990 188     4     1    0.0      0   0.00      0      0      0      0      0      0    0.0  0.000      0      0  0.000  0.000  0.000  0.000   0.00   0.00   0.00      0      0      0.0   0.00   0.00   0.04   0.00   0.00   0.00   0.00   0.00   0.00   0.00   0.00   0.00   0.00      0      0      0       0       0
 1990 189     5     2    0.0      0   0.00      0      0      0      0      0      0    0.0  0.000      0      0  0.000  0.000  0.000  0.000   0.00   0.00   0.00      0      0      0.0   0.00   0.00   0.05   0.00   0.00   0.00   0.00   0.00   0.00   0.00   0.00   0.00   0.00      0      0      0       0       0
 1990 190     6     3    0.0      0   0.00      0      0      0      0      0      0    0.0  0.000      0      0  0.000  0.000  0.000  0.000   0.00   0.00   0.00      0      0      0.0   0.00   0.00   0.05   0.00   0.00   0.00   0.00   0.00   0.00   0.00   0.00   0.00   0.00      0      0      0       0       0
 1990 191     7     4    0.0      0   0.00      0      0      0      0      0      0    0.0  0.000      0      0  0.000  0.000  0.000  0.000   0.00   0.00   0.00      0      0      0.0   0.00   0.00   0.06   0.00   0.00   0.00   0.00   0.00   0.00   0.00   0.00   0.00   0.00      0      0      0       0       0
 1990 192     8     5    0.0      0   0.00      0      0      0      0      0      0    0.0  0.000      0      0  0.000  0.000  0.000  0.000   0.00   0.00   0.00      0      0      0.0   0.00   0.00   0.07   0.00   0.00   0.00   0.00   0.00   0.00   0.00   0.00   0.00   0.00      0      0      0       0       0
 1990 193     9     6    0.0      0   0.00      0      0      0      0      0      0    0.0  0.000      0      0  0.000  0.000  0.000  0.000   0.00   0.00   0.00      0      0      0.0   0.00   0.00   0.08   0.00   0.00   0.00   0.00   0.00   0.00   0.00   0.00   0.00   0.00      0      0      0       0       0
 1990 194    10     7    0.0      0   0.00      0      0      0      0      0      0    0.0  0.000      0      0  0.000  0.000  0.000  0.000   0.00   0.00   0.00      0      0      0.0   0.00   0.00   0.08   0.00   0.00   0.00   0.00   0.00   0.00   0.00   0.00   0.00   0.00      0      0      0       0       0
 1990 195    11     8    0.0      0   0.00      0      0      0      0      0      0    0.0  0.000      0      0  0.000  0.000  0.000  0.000   0.00   0.00   0.00      0      0      0.0   0.00   0.00   0.09   0.00   0.00   0.00   0.00   0.00   0.00   0.00   0.00   0.00   0.00      0      0      0       0       0
 1990 196    12     9    0.0      0   0.00      0      0      0      0      0      0    0.0  0.000      0      0  0.000  0.000  0.000  0.000   0.00   0.00   0.00      0      0      0.0   0.00   0.00   0.11   0.00   0.00   0.00   0.00   0.00   0.00   0.00   0.00   0.00   0.00      0      0      0       0       0
 1990 197    13    10    0.0      0   0.00      0      0      0      0      0      0    0.0  0.000      0      0  0.000  0.000  0.000  0.000   0.00   0.00   0.00      0      0      0.0   0.00   0.00   0.11   0.00   0.00   0.00   0.00   0.00   0.00   0.00   0.00   0.00   0.00      0      0      0       0       0
 1990 198    14    11    0.0      0   0.00      0      0      0      0      0      0    0.0  0.000      0      0  0.000  0.000  0.000  0.000   0.00   0.00   0.00      0      0      0.0   0.00   0.00   0.12   0.00   0.00   0.00   0.00   0.00   0.00   0.00   0.00   0.00   0.00      0      0      0       0       0
 1990 199    15    12    0.0      0   0.00      0      0      0      0      0      0    0.0  0.000      0      0  0.000  0.000  0.000  0.000   0.00   0.00   0.00      0      0      0.0   0.00   0.00   0.12   0.00   0.00   0.00   0.00   0.00   0.00   0.00   0.00   0.00   0.00      0      0      0       0       0
 1990 200    16    13    0.0      0   0.00      0      0      0      0      0      0    0.0  0.000      0      0  0.000  0.000  0.000  0.000   0.00   0.00   0.00      0      0      0.0   0.00   0.00   0.12   0.00   0.00   0.00   0.00   0.00   0.00   0.00   0.00   0.00   0.00      0      0      0       0       0
 1990 201    17    14    0.0      0   0.00      0      0      0      0      0      0    0.0  0.000      0      0  0.000  0.000  0.000  0.000   0.00   0.00   0.00      0      0      0.0   0.00   0.00   0.12   0.00   0.00   0.00   0.00   0.00   0.00   0.00   0.00   0.00   0.00      0      0      0       0       0
 1990 202    18    15    0.0      0   0.00      0      0      0      0      0      0    0.0  0.000      0      0  0.000  0.000  0.000  0.000   0.00   0.00   0.00      0      0      0.0   0.00   0.00   0.12   0.00   0.00   0.00   0.00   0.00   0.00   0.00   0.00   0.00   0.00      0      0      0       0       0
 1990 203    19    16    0.0      0   0.00      0      0      0      0      0      0    0.0  0.000      0      0  0.000  0.000  0.000  0.000   0.00   0.00   0.00      0      0      0.0   0.00   0.00   0.12   0.00   0.00   0.00   0.00   0.00   0.00   0.00   0.00   0.00   0.00      0      0      0       0       0
 1990 204    20    17    0.0      0   0.00      0      0      0      0      0      0    0.0  0.000      0      0  0.000  0.000  0.000  0.000   0.00   0.00   0.00      0      0      0.0   0.00   0.00   0.12   0.00   0.00   0.00   0.00   0.00   0.00   0.00   0.00   0.00   0.00      0      0      0       0       0
 1990 205    21    18    0.0      0   0.00      0      0      0      0      0      0    0.0  0.000      0      0  0.000  0.000  0.000  0.000   0.00   0.00   0.00      0      0      0.0   0.00   0.00   0.12   0.00   0.00   0.00   0.00   0.00   0.00   0.00   0.00   0.00   0.00      0      0      0       0       0
 1990 206    22    19    0.0      0   0.00      0      0      0      0      0      0    0.0  0.000      0      0  0.000  0.000  0.000  0.000   0.00   0.00   0.00      0      0      0.0   0.00   0.00   0.12   0.00   0.00   0.00   0.00   0.00   0.00   0.00   0.00   0.00   0.00      0      0      0       0       0
 1990 207    23    20    0.0      0   0.00      0      0      0      0      0      0    0.0  0.000      0      0  0.000  0.000  0.000  0.000   0.00   0.00   0.00      0      0      0.0   0.00   0.00   0.12   0.00   0.00   0.00   0.00   0.00   0.00   0.00   0.00   0.00   0.00      0      0      0       0       0
 1990 208    24    21    0.0      0   0.00      0      0      0      0      0      0    0.0  0.000      0      0  0.000  0.000  0.000  0.000   0.00   0.00   0.00      0      0      0.0   0.00   0.00   0.12   0.00   0.00   0.00   0.00   0.00   0.00   0.00   0.00   0.00   0.00      0      0      0       0       0
 1990 209    25    22    0.0      0   0.00      0      0      0      0      0      0    0.0  0.000      0      0  0.000  0.000  0.000  0.000   0.00   0.00   0.00      0      0      0.0   0.00   0.00   0.12   0.00   0.00   0.00   0.00   0.00   0.00   0.00   0.00   0.00   0.00      0      0      0       0       0
 1990 210    26    23    0.0      0   0.00      0      0      0      0      0      0    0.0  0.000      0      0  0.000  0.000  0.000  0.000   0.00   0.00   0.00      0      0      0.0   0.00   0.00   0.12   0.00   0.00   0.00   0.00   0.00   0.00   0.00   0.00   0.00   0.00      0      0      0       0       0
 1990 211    27    24    0.0      0   0.00      0      0      0      0      0      0    0.0  0.000      0      0  0.000  0.000  0.000  0.000   0.00   0.00   0.00      0      0      0.0   0.00   0.00   0.13   0.00   0.00   0.00   0.00   0.00   0.00   0.00   0.00   0.00   0.00      0      0      0       0       0
 1990 212    28    25    1.0      1   0.00     14     14      0     14     28      0    0.0  0.000      0      0  0.000  0.000  0.012  0.000   4.40   0.00   0.00      0      0      6.4   0.00   0.00   0.13   0.28   0.10   0.00   0.00   0.00   0.00   0.00   0.00   0.00   0.00      0      0      0       0       0
 1990 213    29    26    1.0      1   0.00     14     14      0     14     28      0    0.0  0.000      0      0  0.000  0.000  0.019  0.000   4.56   0.00   0.00      0      0     11.3   0.00   0.00   0.13   0.28   0.10   0.00   0.00   0.00   0.00   0.00   0.00   0.00   0.00      0      0      0       0       0
 1990 214    30    27    1.0      1   0.00     14     14      0     14     28      0    0.0  0.000      0      0  0.000  0.000  0.000  0.000   4.56   0.00   0.00      0      0     17.4   0.00   0.00   0.14   0.28   0.11   0.00   0.00   0.00   0.00   0.00   0.00   0.00   0.00      0      0      0       0       0
 1990 215    31    28    2.0      1   0.00     14     14      0     14     28      0    0.0  0.000      0      0  0.000  0.000  0.000  0.000   4.56   0.00   0.00      0      0     25.9   0.00   0.00   0.14   0.28   0.11   0.00   0.00   0.00   0.00   0.00   0.00   0.00   0.00      0      0      0       0       0
 1990 216    32    29    2.0      1   0.01     14     14      0     15     28      0    0.0  0.000      0      0  0.000  0.000  0.000  0.000   4.56   0.00   0.00      0      0     37.6   0.00   0.00   0.15   0.28   0.11   0.00   0.00   0.00   0.00   0.00   0.00   0.00   0.00      0      0      0       0       0
 1990 217    33    30    2.0      1   0.01     14     14      0     15     28      0    0.0  0.000      0      0  0.000  0.000  0.000  0.000   4.56   0.00   0.00      0      0     55.7   0.00   0.00   0.16   0.29   0.12   0.00   0.00   0.00   0.00   0.00   0.00   0.00   0.00      0      0      0       0       0
 1990 218    34    31    3.0      1   0.01     14     14      0     16     28      0    0.0  0.000      0      0  0.000  0.000  0.000  0.000   4.56   0.00   0.00      0      0     80.3   0.00   0.00   0.17   0.29   0.13   0.00   0.00   0.00   0.00   0.00   0.00   0.00   0.00      0      0      0       0       0
 1990 219    35    32    3.0      1   0.02     14     14      0     17     28      0    0.0  0.000      0      0  0.000  0.000  0.000  0.000   4.42   0.00   0.00      0      0    110.6   0.00   0.00   0.18   0.30   0.14   0.00   0.00   0.00   0.00   0.00   0.00   0.00   0.00      0      0      0       0       0
 1990 220    36    33    3.0      1   0.02     14     14      0     18     28      0    0.0  0.000      0      0  0.000  0.000  0.000  0.000   4.41   0.00   0.00      0      0    125.8   0.00   0.00   0.19   0.31   0.16   0.01   0.00   0.00   0.00   0.00   0.00   0.00   0.00      0      0      0       0       0
 1990 221    37    34    3.0      1   0.02     14     14      0     19     28      0    0.0  0.000      0      0  0.000  0.000  0.000  0.000   4.40   0.00   0.00      0      0    133.6   0.00   0.00   0.19   0.32   0.17   0.01   0.00   0.00   0.00   0.00   0.00   0.00   0.00      0      0      0       0       0
 1990 222    38    35    4.0      1   0.03     14     14      0     21     28      0    0.0  0.000      0      0  0.000  0.000  0.000  0.000   4.38   0.00   0.00      0      0    180.3   0.00   0.00   0.20   0.33   0.19   0.02   0.00   0.00   0.00   0.00   0.00   0.00   0.00      0      0      0       0       0
 1990 223    39    36    4.0      1   0.04     14     14      0     24     28      0    0.0  0.000      0      0  0.000  0.000  0.000  0.000   4.35   0.00   0.00      0      0    299.4   0.00   0.00   0.21   0.35   0.21   0.03   0.00   0.00   0.00   0.00   0.00   0.00   0.00      0      0      0       0       0
 1990 224    40    37    4.0      1   0.06     17     14      0     28     31      0    0.0  0.000      0      0  0.000  0.000  0.000  0.000   3.87   0.00   0.00      0      0    328.8   0.00   0.00   0.23   0.37   0.24   0.05   0.00   0.00   0.00   0.00   0.00   0.00   0.00      0      0      0       0       1
 1990 225    41    38    5.0      1   0.07     24     14      0     30     38      0    0.0  0.000      0      0  0.000  0.000  0.000  0.000   3.54   0.00   0.00      0      0    307.8   0.00   0.00   0.24   0.38   0.26   0.06   0.00   0.00   0.00   0.00   0.00   0.00   0.00      0      0      0       0       1
 1990 226    42    39    5.0      1   0.08     27     14      0     30     41      0    0.0  0.000      0      0  0.000  0.000  0.000  0.000   3.94   0.00   0.00      0      0    300.0   0.00   0.00   0.24   0.39   0.26   0.06   0.00   0.00   0.00   0.00   0.00   0.00   0.00      0      0      0       0       1
 1990 227    43    40    5.0      1   0.09     29     14      0     34     43      0    0.0  0.000      0      0  0.000  0.000  0.000  0.000   4.12   0.00   0.00      0      0    296.6   0.00   0.00   0.24   0.41   0.29   0.08   0.00   0.00   0.00   0.00   0.00   0.00   0.00      0      0      0       0       1
 1990 228    44    41    5.0      1   0.09     32     14      0     43     46      0    0.0  0.000      0      0  0.000  0.000  0.000  0.000   3.94   0.00   0.00      0      0    273.5   0.00   0.00   0.25   0.46   0.36   0.13   0.00   0.00   0.00   0.00   0.00   0.00   0.00      0      0      0       0       1
 1990 229    45    42    5.0      1   0.10     37     14      0     52     51      0    0.0  0.000      0      0  0.000  0.000  0.000  0.000   3.86   0.00   0.00      0      0    268.2   0.00   0.00   0.26   0.51   0.43   0.19   0.00   0.00   0.00   0.00   0.00   0.00   0.00      0      0      0       0       1
 1990 230    46    43    5.0      1   0.11     41     14      0     60     55      0    0.0  0.000      0      0  0.000  0.000  0.000  0.000   3.92   0.00   0.00      0      0    264.0   0.00   0.00   0.26   0.56   0.50   0.24   0.00   0.00   0.00   0.00   0.00   0.00   0.00      0      0      0       0       2
 1990 231    47    44    5.0      1   0.12     47     14      0     72     61      0    0.0  0.000      0      0  0.000  0.000  0.000  0.000   3.81   0.00   0.00      0      0    258.6   0.00   0.00   0.27   0.62   0.58   0.31   0.00   0.00   0.00   0.00   0.00   0.00   0.00      0      0      0       0       2
 1990 232    48    45    5.0      1   0.13     51     14      0     83     65      0    0.0  0.000      0      0  0.000  0.000  0.000  0.000   3.95   0.00   0.00      0      0    255.2   0.00   0.00   0.27   0.71   0.65   0.38   0.00   0.00   0.00   0.00   0.00   0.00   0.00      0      0      0       0       2
 1990 233    49    46    6.0      1   0.14     54     14      0     87     68      0    0.0  0.000      0      0  0.000  0.000  0.000  0.000   4.00   0.00   0.00      0      0    252.7   0.00   0.00   0.27   0.74   0.68   0.40   0.00   0.00   0.00   0.00   0.00   0.00   0.00      0      0      0       0       3
 1990 234    50    47    6.0      1   0.14     56     14      0     95     70      0    0.0  0.000      0      0  0.000  0.000  0.000  0.000   4.09   0.00   0.00      0      0    247.2   0.00   0.00   0.28   0.80   0.73   0.45   0.00   0.00   0.00   0.00   0.00   0.00   0.00      0      0      0       0       3
 1990 235    51    48    6.0      1   0.09     58     14      0    103     72      0    0.0  0.000      0      0  0.000  0.000  0.000  0.000   4.09   0.00   0.00      0      0    163.3   0.00   0.00   0.28   0.86   0.78   0.50   0.00   0.00   0.00   0.00   0.00   0.00   0.00      0      0      0       0       4
 1990 236    52    49    6.0      1   0.10     62     14      0    111     76      0    0.0  0.000      0      0  0.000  0.000  0.000  0.000   3.94   0.00   0.00      0      0    159.1   0.00   0.00   0.28   0.92   0.83   0.55   0.00   0.00   0.00   0.00   0.00   0.00   0.00      0      0      0       0       4
 1990 237    53    50    6.0      1   0.12     71     14      0    119     85      0    0.0  0.000      0      0  0.000  0.000  0.000  0.000   3.70   0.00   0.00      0      0    164.9   0.00   0.00   0.29   0.97   0.88   0.60   0.00   0.00   0.00   0.00   0.00   0.00   0.00      0      0      0       0       5
 1990 238    54    51    6.0      1   0.14     84     14      0    125     98      0    0.0  0.000      0      0  0.000  0.000  0.000  0.000   3.59   0.00   0.00      0      0    169.9   0.00   0.00   0.30   1.01   0.92   0.65   0.00   0.00   0.00   0.00   0.00   0.00   0.00      0      0      0       0       5
 1990 239    55    52    6.0      1   0.15     88     14      0    129    102      0    0.0  0.000      0      0  0.000  0.000  0.000  0.000   3.97   0.00   0.00      0      0    170.9   0.00   0.00   0.30   1.04   0.94   0.68   0.00   0.00   0.00   0.00   0.00   0.00   0.00      0      0      0       0       6
 1990 240    56    53    6.0      1   0.13     88     14      0    130    102      0    0.0  0.000      0      0  0.000  0.000  0.000  0.000   4.13   0.00   0.00      0      0    147.5   0.00   0.00   0.30   1.05   0.95   0.68   0.00   0.00   0.00   0.00   0.00   0.00   0.00      0      0      0       0       7
 1990 241    57    54    6.0      1   0.06     90     14      0    137    104      0    0.0  0.000      0      0  0.000  0.000  0.000  0.000   4.05   0.00   0.00      0      0     67.2   0.00   0.00   0.30   1.09   0.98   0.73   0.00   0.00   0.00   0.00   0.00   0.00   0.00      0      0      0       0       7
 1990 242    58    55    6.0      1   0.07     94     14      0    138    108      0    0.0  0.000      0      0  0.000  0.000  0.000  0.000   3.89   0.00   0.00      0      0     71.4   0.00   0.00   0.31   1.10   0.99   0.74   0.00   0.00   0.00   0.00   0.00   0.00   0.00      0      0      0       0       7
 1990 243    59    56    6.0      1   0.06     94     14      0    138    108      0    0.0  0.000      0      0  0.000  0.000  0.010  0.000   4.12   0.00   0.00      0      0     64.1   0.00   0.00   0.31   1.09   0.99   0.74   0.00   0.00   0.00   0.00   0.00   0.00   0.00      0      0      0       0       8
 1990 244    60    57    6.0      1   0.04     94     14      0    138    108      0    0.0  0.000      0      0  0.000  0.000  0.000  0.000   4.12   0.00   0.00      0      0     39.5   0.00   0.00   0.31   1.09   0.99   0.73   0.00   0.00   0.00   0.00   0.00   0.00   0.00      0      0      0       0       9
 1990 245    61    58    6.0      1   0.01     96     14      0    138    110      0    0.0  0.000      0      0  0.000  0.000  0.000  0.000   4.07   0.00   0.00      0      0      9.3   0.00   0.00   0.31   1.09   0.99   0.73   0.00   0.00   0.00   0.00   0.00   0.00   0.00      0      0      0       0       9
 1990 246    62    59    7.0      1   0.01     99     14      0    137    113      0    0.0  0.000      0      0  0.000  0.000  0.000  0.000   3.96   0.00   0.00      0      0      8.8   0.00   0.00   0.31   1.08   0.98   0.73   0.00   0.00   0.00   0.00   0.00   0.00   0.00      0      0      0       0       9
 1990 247    63    60    7.0      1   0.02    104     14      0    137    118      0    0.0  0.000      0      0  0.000  0.000  0.004  0.000   3.91   0.00   0.00      0      0     18.4   0.00   0.00   0.31   1.08   0.98   0.73   0.00   0.00   0.00   0.00   0.00   0.00   0.00      0      0      0       0       9
 1990 248    64    61    7.0      1   0.04    106     14      0    136    120      0    0.0  0.000      0      0  0.000  0.000  0.000  0.000   4.04   0.00   0.00      0      0     36.5   0.00   0.00   0.31   1.08   0.97   0.73   0.00   0.00   0.00   0.00   0.00   0.00   0.00      0      0      0       0      10
 1990 249    65    62    7.0      1   0.04    107     14      0    136    121      0    0.0  0.000      0      0  0.000  0.000  0.000  0.000   4.03   0.00   0.00      0      0     38.7   0.00   0.00   0.32   1.07   0.97   0.72   0.00   0.00   0.00   0.00   0.00   0.00   0.00      0      0      0       0      11
 1990 250    66    63    7.0      1   0.05    109     14      0    136    123      0    0.0  0.000      0      0  0.000  0.000  0.000  0.000   4.00   0.00   0.00      0      0     41.5   0.00   0.00   0.32   1.07   0.97   0.72   0.00   0.00   0.00   0.00   0.00   0.00   0.00      0      0      0       0      11
 1990 251    67    64    7.0      1   0.05    112     14      0    136    126      0    0.0  0.000      0      0  0.000  0.000  0.000  0.150   3.96   0.00   0.00      0      0     45.2   0.00   0.00   0.33   1.07   0.97   0.72   0.00   0.00   0.00   0.00   0.00   0.00   0.00      0      0      0       0      12
 1990 252    68    65    8.0      1   0.07    123     14      0    137    137      0    0.0  0.000      0      0  0.000  0.000  0.000  0.054   3.70   0.00   0.00      0      0     58.6   0.00   0.00   0.34   1.08   0.97   0.73   0.00   0.00   0.00   0.00   0.00   0.00   0.00      0      0      0       0      13
 1990 253    69    66    8.0      1   0.09    133     14      0    138    147      0    0.0  0.000      0      0  0.000  0.000  0.000  0.439   3.72   0.00   0.00      0      0     69.0   0.00   0.00   0.35   1.01   0.92   0.69   0.00   0.00   0.00   0.00   0.00   0.00   0.00      0      0      0       0      13
 1990 254    70    67    8.0      1   0.11    142     14      0    139    156      0    0.0  0.000      0      0  0.000  0.000  0.000  0.259   3.77   0.00   0.00      0      0     76.3   0.00   0.00   0.36   0.99   0.89   0.68   0.00   0.00   0.00   0.00   0.00   0.00   0.00      0      0      0       0      14
 1990 255    71    68    8.0      1   0.12    150     14      0    140    164      0    0.0  0.000      0      0  0.000  0.000  0.000  0.099   3.79   0.00   0.00      0      0     82.3   0.00   0.00   0.36   0.97   0.88   0.67   0.00   0.00   0.00   0.00   0.00   0.00   0.00      0      0      0       0      15
 1990 256    72    69    8.0      1   0.14    167     14      0    143    181      0    0.0  0.000      0      0  0.000  0.000  0.000  0.041   3.62   0.00   0.00      0      0     85.9   0.00   0.00   0.36   0.98   0.89   0.68   0.01   0.00   0.00   0.00   0.00   0.00   0.00      0      0      0       0      15
 1990 257    73    70    8.0      1   0.13    186     14      0    145    200      0    0.0  0.000      0      0  0.000  0.000  0.000  0.000   3.59   0.00   0.00      0      0     69.8   0.00   0.00   0.36   0.99   0.90   0.70   0.01   0.00   0.00   0.00   0.00   0.00   0.00      0      0      0       0      16
 1990 258    74    71    8.0      1   0.15    215     14      0    150    229      0    0.0  0.000      0      0  0.000  0.000  0.000  0.000   3.47   0.00   0.00      0      0     67.4   0.00   0.00   0.37   1.02   0.93   0.73   0.01   0.00   0.00   0.00   0.00   0.00   0.00      0      0      0       0      17
 1990 259    75    72    8.0      1   0.17    234     14      0    161    248      0    0.0  0.000      0      0  0.000  0.000  0.000  0.000   3.66   0.00   0.00      0      0     74.5   0.00   0.00   0.38   1.08   1.00   0.79   0.03   0.00   0.00   0.00   0.00   0.00   0.00      0      0      0       0      18
 1990 260    76    73    8.0      1   0.19    246     14      0    166    260      0    0.0  0.000      0      0  0.000  0.000  0.000  0.000   3.75   0.00   0.00      0      0     78.8   0.00   0.00   0.39   1.11   1.03   0.82   0.04   0.00   0.00   0.00   0.00   0.00   0.00      0      0      0       0      18
 1990 261    77    74    9.0      1   0.24    252     14      0    167    266      0    0.0  0.000      0      0  0.000  0.000  0.000  0.000   3.85   0.00   0.00      0      0     94.0   0.00   0.00   0.39   1.11   1.03   0.82   0.04   0.00   0.00   0.00   0.00   0.00   0.00      0      0      0       0      19
 1990 262    78    75    9.0      1   0.26    268     14      0    169    282      0    0.0  0.000      0      0  0.000  0.000  0.000  0.000   3.71   0.00   0.00      0      0     98.2   0.00   0.00   0.40   1.12   1.04   0.84   0.04   0.00   0.00   0.00   0.00   0.00   0.00      0      0      0       0      20
 1990 263    79    76    9.0      1   0.31    300     14      0    174    314      0    0.0  0.000      0      0  0.000  0.000  0.000  0.000   3.51   0.00   0.00      0      0    105.0   0.00   0.00   0.41   1.15   1.07   0.87   0.05   0.00   0.00   0.00   0.00   0.00   0.00      0      0      0       0      21
 1990 264    80    77    9.0      2   0.35    320     14      0    177    334      0    0.0  0.000      0      0  0.000  0.000  0.000  0.000   3.65   0.00   0.00      0      0    108.5   0.00   0.00   0.42   1.16   1.08   0.88   0.06   0.00   0.00   0.00   0.00   0.00   0.00      0      0      0       0      22
 1990 265    81    78    9.0      2   0.38    340     14      0    205    354      0    0.0  0.000      0      0  0.000  0.000  0.001  0.000   3.67   0.00   0.00      0      0    111.4   0.00   0.00   0.43   1.32   1.24   1.04   0.11   0.00   0.00   0.00   0.00   0.00   0.00      0      0      0       0      23
 1990 266    82    79    9.0      2   0.39    345     14      0    213    359      0    0.0  0.000      0      0  0.000  0.000  0.000  0.000   3.77   0.00   0.00      0      0    112.1   0.00   0.00   0.43   1.36   1.28   1.08   0.13   0.00   0.00   0.00   0.00   0.00   0.00      0      0      0       0      24
 1990 267    83    80    9.0      2   0.40    356     14      0    238    370      0    0.0  0.000      0      0  0.000  0.000  0.000  0.000   3.88   0.00   0.00      0      0    113.3   0.00   0.00   0.43   1.50   1.42   1.23   0.18   0.00   0.00   0.00   0.00   0.00   0.00      0      0      0       0      25
 1990 268    84    81    9.0      3   0.40    374     14      0    288    388      0    0.0  0.000      0      0  0.000  0.000  0.022  0.000   3.69   0.00   0.00      0      0    108.0   0.00   0.00   0.44   1.77   1.70   1.50   0.28   0.00   0.00   0.00   0.00   0.00   0.00      0      0      0       0      26
 1990 269    85    82   10.0      3   0.44    400     14      0    337    414      0    0.0  0.000      0      0  0.000  0.000  0.022  0.000   3.58   0.00   0.00      0      0    110.1   0.00   0.00   0.45   2.03   1.96   1.77   0.38   0.00   0.00   0.00   0.00   0.00   0.00      0      0      0       0      27
 1990 270    86    83   10.0      3   0.51    447     14      0    380    461      0    0.0  0.000      0      0  0.000  0.000  0.022  0.000   3.55   0.00   0.00      0      0    113.8   0.00   0.00   0.46   2.26   2.20   2.00   0.49   0.00   0.00   0.00   0.00   0.00   0.00      0      0      0       0      29
 1990 271    87    84   10.0      3   0.56    484     15      0    415    498      0    0.0  0.000      0      0  0.000  0.000  0.022  0.000   3.52   0.00   0.00      0      0    116.0   0.00   0.00   0.47   2.44   2.38   2.19   0.56   0.01   0.00   0.00   0.00   0.00   0.00      0      0      0       0      31
 1990 272    88    85   10.0      3   0.63    530     16      0    458    546      0    0.0  0.000      0      0  0.000  0.000  0.022  0.000   3.49   0.00   0.00      0      0    118.1   0.00   0.00   0.48   2.67   2.60   2.41   0.65   0.02   0.00   0.00   0.00   0.00   0.00      0      0      0       0      33
 1990 273    89    86   11.0      3   0.72    601     18      0    506    619      0    0.0  0.000      0      0  0.000  0.000  0.022  0.000   3.45   0.00   0.00      0      0    120.4   0.00   0.00   0.50   2.92   2.86   2.67   0.76   0.05   0.00   0.00   0.00   0.00   0.00      0      0      0       0      35
 1990 274    90    87   11.0      3   0.83    677     22      0    572    699      0    0.0  0.000      0      0  0.000  0.000  0.022  0.000   3.40   0.00   0.00      0      0    122.0   0.00   0.00   0.52   3.26   3.20   3.01   0.89   0.09   0.00   0.00   0.00   0.00   0.00      0      0      0       0      38
 1990 275    91    88   11.0      3   0.89    724     26      0    662    750      0    0.0  0.000      0      0  0.000  0.000  0.022  0.000   3.37   0.00   0.00      0      0    122.5   0.00   0.00   0.53   3.71   3.66   3.47   1.08   0.16   0.00   0.00   0.00   0.00   0.00      0      0      0       0      41
 1990 276    92    89   11.0      3   0.97    786     31      0    724    817      0    0.0  0.000      0      0  0.000  0.000  0.022  0.000   3.34   0.00   0.00      0      0    123.0   0.00   0.00   0.54   4.00   3.97   3.78   1.21   0.22   0.00   0.00   0.00   0.00   0.00      0      0      0       0      44
 1990 277    93    90   12.0      3   1.05    854     38      0    725    893      0    0.0  0.000      0      0  0.000  0.000  0.022  0.000   3.31   0.00   0.00      0      0    123.3   0.00   0.00   0.55   4.00   3.97   3.78   1.21   0.22   0.00   0.00   0.00   0.00   0.00      0      0      0       0      48
 1990 278    94    91   12.0      3   1.14    921     47      0    725    969      0    0.0  0.000      0      0  0.000  0.000  0.022  0.000   3.28   0.00   0.00      0      0    123.3   0.00   0.00   0.56   3.97   3.96   3.77   1.21   0.22   0.00   0.00   0.00   0.00   0.00      0      0      0       0      51
 1990 279    95    92   12.0      3   1.18    960     53      0    736   1013      0    0.0  0.000      0      0  0.000  0.000  0.022  0.235   3.29   0.00   0.00      0      0    123.1   0.00   0.00   0.57   3.99   3.99   3.81   1.23   0.24   0.00   0.00   0.00   0.00   0.00      0      0      0       0      55
 1990 280    96    93   12.0      3   1.25   1014     62      0    747   1076      0    0.0  0.000      0      0  0.000  0.000  0.022  0.305   3.23   0.00   0.00      0      0    122.9   0.00   0.00   0.58   3.98   4.00   3.83   1.24   0.25   0.00   0.00   0.00   0.00   0.00      0      0      0       0      59
 1990 281    97    94   13.0      3   1.31   1070     74      0    809   1144      0    0.0  0.000      0      0  0.000  0.000  0.022  0.123   3.21   0.00   0.00      0      0    122.7   0.00   0.00   0.59   4.00   4.00   4.00   1.36   0.35   0.00   0.00   0.00   0.00   0.00      0      0      0       0      62
 1990 282    98    95   13.0      3   1.41   1152     92      0    908   1244      0    0.0  0.000      0      0  0.000  0.000  0.022  0.001   3.18   0.00   0.00      0      0    122.4   0.00   0.00   0.60   4.00   4.00   4.00   1.56   0.51   0.00   0.00   0.00   0.00   0.00      0      0      0       0      66
 1990 283    99    96   13.0      3   1.50   1229    112      0   1031   1341      0    0.0  0.000      0      0  0.000  0.000  0.022  0.001   3.15   0.00   0.00      0      0    122.0   0.00   0.00   0.61   4.00   4.00   4.00   1.80   0.69   0.00   0.00   0.00   0.00   0.00      0      0      0       0      71
 1990 284   100    97   13.0      3   1.59   1313    137      0   1052   1450      0    0.0  0.000      0      0  0.000  0.000  0.022  0.000   3.12   0.00   0.00      0      0    121.5   0.00   0.00   0.63   4.00   4.00   4.00   1.83   0.73   0.00   0.00   0.00   0.00   0.00      0      0      0       0      76
 1990 285   101    98   14.0      3   1.66   1374    158      0   1193   1532      0    0.0  0.000      0      0  0.000  0.000  0.022  0.000   3.10   0.00   0.00      0      0    121.0   0.00   0.00   0.63   4.00   4.00   4.00   2.11   0.94   0.01   0.00   0.00   0.00   0.00      0      0      0       0      81
 1990 286   102    99   14.0      3   1.74   1447    184      0   1318   1631      0    0.0  0.000      0      0  0.000  0.000  0.022  0.000   3.08   0.00   0.00      0      0    120.5   0.00   0.00   0.64   4.00   4.00   4.00   2.35   1.13   0.03   0.00   0.00   0.00   0.00      0      0      0       0      87
 1990 287   103   100   14.0      3   1.82   1518    212      0   1449   1730      0    0.0  0.000      0      0  0.000  0.000  0.022  0.000   3.05   0.00   0.00      0      0    119.9   0.00   0.00   0.65   4.00   4.00   4.00   2.58   1.31   0.04   0.00   0.00   0.00   0.00      0      0      0       0      94
 1990 288   104   101   14.0      3   1.87   1563    231      0   1605   1794      0    0.0  0.000      0      0  0.000  0.000  0.022  0.001   3.04   0.00   0.00      0      0    119.5   0.00   0.00   0.66   4.00   4.00   4.00   2.87   1.53   0.06   0.00   0.00   0.00   0.00      0      0      0       0     101
 1990 289   105   102   14.0      3   1.92   1614    254      0   1769   1868      0    0.0  0.000      0      0  0.000  0.000  0.022  0.001   3.02   0.00   0.00      0      0    119.0   0.00   0.00   0.66   4.00   4.00   4.00   3.17   1.76   0.08   0.00   0.00   0.00   0.00      0      0      0       0     109
 1990 290   106   103   14.0      3   2.00   1690    290      0   1912   1980      0    0.0  0.000      0      0  0.000  0.000  0.022  0.001   3.00   0.00   0.00      0      0    118.4   0.00   0.00   0.67   4.00   4.00   4.00   3.43   1.96   0.10   0.00   0.00   0.00   0.00      0      0      0       0     118
 1990 291   107   104   15.0      3   2.11   1795    347      0   2034   2142      0    0.0  0.000      0      0  0.000  0.000  0.022  0.001   2.97   0.00   0.00      0      0    117.8   0.00   0.00   0.69   4.00   4.00   4.00   3.66   2.13   0.12   0.00   0.00   0.00   0.00      0      0      0       0     128
 1990 292   108   105   15.0      3   2.22   1898    410      0   2088   2307      0    0.0  0.000      0      0  0.000  0.000  0.022  0.001   2.93   0.00   0.00      0      0    117.1   0.00   0.00   0.70   4.00   4.00   4.00   3.76   2.21   0.14   0.00   0.00   0.00   0.00      0      0      0       0     138
 1990 293   109   106   15.0      3   2.32   1994    473      0   2173   2467      0    0.0  0.000      0      0  0.000  0.000  0.022  0.001   2.91   0.00   0.00      0      0    116.4   0.00   0.00   0.71   4.00   4.00   4.00   3.92   2.33   0.16   0.00   0.00   0.00   0.00      0      0      0       0     148
 1990 294   110   107   16.0      3   2.42   2094    546      0   2278   2640      0    0.0  0.000      0      0  0.000  0.000  0.022  0.001   2.88   0.00   0.00      0      0    115.7   0.00   0.00   0.72   4.00   4.00   4.00   4.00   2.48   0.19   0.00   0.00   0.00   0.00      0      0      0       0     159
 1990 295   111   108   16.0      3   2.54   2205    635      0   2403   2840      0    0.0  0.000      0      0  0.000  0.000  0.022  0.000   2.84   0.00   0.00      0      0    115.0   0.00   0.00   0.74   4.00   4.00   4.00   4.00   2.66   0.22   0.00   0.00   0.00   0.00      0      0      0       0     170
 1990 296   112   109   16.0      3   2.59   2258    679      0   2559   2937      0    0.0  0.000      0      0  0.000  0.000  0.022  0.000   2.83   0.00   0.00      0      0    114.5   0.00   0.00   0.74   4.00   4.00   4.00   4.00   2.90   0.28   0.00   0.00   0.00   0.00      0      0      0       0     183
 1990 297   113   110   16.0      3   2.65   2325    738      0   2732   3063      0    0.0  0.000      0      0  0.000  0.000  0.022  0.000   2.81   0.00   0.00      0      0    114.0   0.00   0.00   0.75   4.00   4.00   4.00   4.00   3.17   0.34   0.00   0.00   0.00   0.00      0      0      0       0     195
 1990 298   114   111   16.0      3   2.73   2413    820      0   2871   3233      0    0.0  0.000      0      0  0.000  0.000  0.022  0.000   2.78   0.00   0.00      0      0    113.3   0.00   0.00   0.76   4.00   4.00   4.00   4.00   3.39   0.39   0.00   0.00   0.00   0.00      0      0      0       0     209
 1990 299   115   112   17.0      3   3.03   2709    926      0   2879   3636      0    0.0  0.000      0      0  0.000  0.000  0.022  0.000   2.75   0.00   0.00      0      0    112.0   0.00   0.00   0.78   4.00   4.00   4.00   4.00   3.41   0.40   0.00   0.00   0.00   0.00      0      0      0       0     223
 1990 300   116   113   17.0      3   3.17   2848   1075      0   2881   3923      0    0.0  0.000      0      0  0.000  0.000  0.022  0.000   2.71   0.00   0.00      0      0    111.2   0.00   0.00   0.80   4.00   4.00   4.00   4.00   3.42   0.41   0.00   0.00   0.00   0.00      0      0      0       0     238
 1990 301   117   114   18.0      3   3.28   2968   1241      0   2882   4209      0    0.0  0.000      0      0  0.000  0.000  0.022  0.000   2.68   0.00   0.00      0      0    110.5   0.00   0.00   0.81   3.82   3.85   3.89   3.86   3.30   0.40   0.00   0.00   0.00   0.00      0      0      0       0     252
 1990 302   118   115   18.0      3   3.33   3024   1334      0   2876   4358      0    0.0  0.000      0      0  0.000  0.000  0.022  0.047   2.65   0.00   0.00      0      0    110.1   0.00   0.00   0.82   3.56   3.61   3.66   3.63   3.10   0.38   0.00   0.00   0.00   0.00      0      0      0       0     267
 1990 303   119   116   18.0      3   3.40   3107   1486      0   2907   4593      0    0.0  0.000      0      0  0.000  0.000  0.022  0.256   2.62   0.00   0.00      0      0    109.5   0.00   0.00   0.84   3.41   3.52   3.67   3.59   3.09   0.42   0.00   0.00   0.00   0.00      0      0      0       0     281
 1990 304   120   117   18.0      3   3.48   3192   1657      0   2955   4848      0    0.0  0.000      0      0  0.000  0.000  0.022  0.074   2.59   0.00   0.00      0      0    108.9   0.00   0.00   0.85   3.32   3.49   3.77   3.66   3.18   0.49   0.00   0.00   0.00   0.00      0      0      0       0     295
 1990 305   121   118   19.0      3   3.55   3276   1840      0   3074   5116      0    0.0  0.000      0      0  0.000  0.000  0.022  0.010   2.56   0.00   0.00      0      0    108.4   0.00   0.00   0.86   3.28   3.55   4.00   3.99   3.55   0.70   0.00   0.00   0.00   0.00      0      0      0       0     310
 1990 306   122   119   19.0      3   3.63   3362   2041      0   3184   5403      0    0.0  0.000      0      0  0.000  0.000  0.022  0.051   2.49   0.00   0.00      0      0    107.9   0.00   0.00   0.88   3.10   3.35   3.78   4.00   3.80   1.00   0.00   0.00   0.00   0.00      0      0      0       0     326
 1990 307   123   120   19.0      3   3.71   3453   2269      0   3243   5722      0    0.0  0.000      0      0  0.000  0.000  0.022  0.056   2.41   0.00   0.00      0      0    107.3   0.00   0.00   0.89   2.96   3.20   3.60   3.95   3.88   1.17   0.00   0.00   0.00   0.00      0      0      0       0     342
 1990 308   124   121   20.0      3   3.73   3492   2372      0   3369   5864      0    0.0  0.000      0      0  0.000  0.000  0.022  0.174   2.40   0.00   0.00      0      0    106.9   0.00   0.00   0.90   2.92   3.15   3.53   4.00   4.00   1.58   0.00   0.00   0.00   0.00      0      0      0       0     358
 1990 309   125   122   20.0      3   3.75   3522   2454      0   3573   5976      0    0.0  0.000      0      0  0.000  0.000  0.022  0.047   2.39   0.00   0.00      0      0    106.5   0.00   0.00   0.91   2.96   3.18   3.56   4.00   4.00   2.28   0.03   0.00   0.00   0.00      0      0      0       0     375
 1990 310   126   123   20.0      3   3.78   3564   2567      0   3746   6131      0    0.0  0.000      0      0  0.000  0.000  0.022  0.009   2.36   0.00   0.00      0      0    106.1   0.00   0.00   0.91   3.04   3.26   3.63   4.00   4.00   2.90   0.08   0.00   0.00   0.00      0      0      0       0     392
 1990 311   127   124   20.0      3   3.80   3588   2637      0   3862   6225      0    0.0  0.000      0      0  0.000  0.000  0.023  0.000   2.35   0.00   0.00      0      0    105.8   0.00   0.00   0.92   3.12   3.34   3.71   4.00   4.00   3.35   0.15   0.00   0.00   0.00      0      0      0       0     411
 1990 312   128   125   20.0      3   3.82   3620   2726      0   4069   6346      0    0.0  0.000      0      0  0.000  0.000  0.023  0.000   2.33   0.00   0.00      0      0    105.4   0.00   0.00   0.92   3.36   3.58   3.94   4.00   4.00   4.00   0.33   0.00   0.00   0.00      0      0      0       0     430
 1990 313   129   126   20.0      3   3.85   3665   2860      0   4228   6526      0    0.0  0.000      0      0  0.000  0.000  0.023  0.000   2.28   0.00   0.00      0      0    105.0   0.00   0.00   0.93   3.60   3.81   4.00   4.00   4.00   4.00   0.56   0.00   0.00   0.00      0      0      0       0     451
 1990 314   130   127   20.0      3   3.90   3733   3057      0   4334   6791      0    0.0  0.000      0      0  0.000  0.000  0.023  0.000   2.21   0.00   0.00      0      0    104.5   0.00   0.00   0.94   3.81   4.00   4.00   4.00   4.00   4.00   0.81   0.00   0.00   0.00      0      0      0       0     472
 1990 315   131   128   20.0      3   3.94   3781   3195      0   4511   6976      0    0.0  0.000      0      0  0.000  0.000  0.024  0.000   2.17   0.00   0.00      0      0    104.1   0.00   0.00   0.95   4.00   4.00   4.00   4.00   4.00   4.00   1.28   0.00   0.00   0.00      0      0      0       0     494
 1990 316   132   129   20.0      3   3.97   3834   3351      0   4622   7186      0    0.0  0.000      0      0  0.000  0.000  0.027  0.000   2.12   0.00   0.00      0      0    103.7   0.00   0.00   0.96   4.00   4.00   4.00   4.00   4.00   4.00   1.67   0.00   0.00   0.00      0      0      0       0     516
 1990 317   133   130   20.0      3   4.02   3898   3534      0   4613   7432      0    0.0  0.000      0      0  0.000  0.000  0.027  0.000   2.07   0.00   0.00      0      0    103.2   0.00   0.00   0.98   4.00   4.00   4.00   4.00   3.99   3.99   1.70   0.00   0.00   0.00      0      0      0       0     539
 1990 318   134   131   20.0      3   4.05   3946   3672      0   4600   7618      0    0.0  0.000      0      0  0.000  0.000  0.028  0.033   2.03   0.00   0.00      0      0    102.7   0.00   0.00   0.99   4.00   4.00   4.00   3.99   3.98   3.98   1.72   0.00   0.00   0.00      0      0      0       0     562
 1990 319   135   132   20.0      3   4.09   4005   3841      0   4630   7846      0    0.0  0.000      0      0  0.000  0.000  0.030  0.246   1.98   0.00   0.00      0      0    102.2   0.00   0.00   1.00   4.00   4.00   4.00   4.00   4.00   4.00   1.86   0.00   0.00   0.00      0      0      0       0     585
 1990 320   136   133   20.0      4   4.08   3965   3258      0   4792   8009      0    0.0  0.000    787      0  0.000  0.000  0.032  0.120   2.15   0.00   0.10      0    787    102.8   0.00   0.00   1.01   4.00   4.00   4.00   4.00   4.00   4.00   2.28   0.00   0.00   0.00      0      0      0       0     609
 1990 321   137   134   20.0      4   4.06   3923   3315      0   4972   8167      0    0.0  0.000    929      0  0.000  0.000  0.033  0.041   2.16   0.00   0.11      0    929    103.5   0.00   0.00   1.02   4.00   4.00   4.00   4.00   4.00   4.00   2.65   0.00   0.00   0.00      0      0      0       0     632
 1990 322   138   135   20.0      4   4.05   3878   3401      0   5104   8422      0    0.0  0.000   1143      0  0.000  0.000  0.022  0.005   2.15   0.00   0.14      0   1143    104.4   0.00   0.00   1.04   4.00   4.00   4.00   4.00   4.00   4.00   2.86   0.00   0.00   0.00      0      0      0       0     657
 1990 323   139   136   20.0      4   4.04   3829   3502      0   5126   8727      0    0.0  0.000   1396      0  0.000  0.000  0.022  0.078   2.14   0.00   0.16      0   1396    105.5   0.00   0.00   1.05   3.93   3.93   3.93   3.84   3.84   3.82   2.73   0.00   0.00   0.00      0      0      0       0     683
 1990 324   140   137   20.0      4   4.03   3778   3580      0   5112   8948      0    0.0  0.000   1591      0  0.000  0.000  0.022  0.093   2.13   0.00   0.18      0   1591    106.6   0.00   0.00   1.07   3.74   3.74   3.74   3.63   3.63   3.61   2.58   0.00   0.00   0.00      0      0      0       0     708
 1990 325   141   138   20.0      4   4.02   3723   3649      0   5267   9138      0    0.0  0.000   1766      0  0.000  0.000  0.022  0.223   2.12   0.00   0.19      0   1766    107.9   0.00   0.00   1.08   4.00   4.00   4.00   3.81   3.77   3.72   2.66   0.00   0.00   0.00      0      0      0       0     734
 1990 326   142   139   20.0      4   4.01   3666   3738      0   5387   9391      0    0.0  0.000   1987      0  0.000  0.000  0.022  0.043   2.11   0.00   0.21      0   1987    109.3   0.00   0.00   1.09   4.00   4.00   4.00   3.98   3.93   3.84   2.74   0.05   0.00   0.00      0      0      0       0     760
 1990 327   143   140   20.0      4   3.99   3605   3825      0   5508   9636      0    0.0  0.000   2205      0  0.000  0.000  0.022  0.004   2.09   0.00   0.23      0   2205    110.8   0.00   0.00   1.10   4.00   4.00   4.00   4.00   4.00   3.97   2.84   0.15   0.00   0.00      0      0      0       0     787
 1990 328   144   141   20.0      4   3.98   3541   3916      0   5585   9888      0    0.0  0.000   2431      0  0.000  0.000  0.022  0.000   2.05   0.00   0.25      0   2431    112.5   0.00   0.00   1.12   4.00   4.00   4.00   4.00   4.00   4.00   2.91   0.24   0.00   0.00      0      0      0       0     815
 1990 329   145   142   20.0      4   3.97   3475   4002      0   5666  10123      0    0.0  0.000   2647      0  0.000  0.000  0.022  0.000   1.96   0.00   0.26      0   2647    114.3   0.00   0.00   1.13   4.00   4.00   4.00   3.92   3.91   3.88   2.82   0.32   0.00   0.00      0      0      0       0     843
 1990 330   146   143   20.0      4   3.96   3406   4061      0   5790  10263      0    0.0  0.000   2795      0  0.000  0.000  0.022  0.000   1.96   0.00   0.27      0   2795    116.3   0.00   0.00   1.13   4.00   4.00   4.00   4.00   4.00   3.94   2.86   0.42   0.00   0.00      0      0      0       0     843
 1990 331   147   144   20.0      4   3.95   3336   4115      0   5979  10379      0    0.0  0.000   2928      0  0.000  0.000  0.022  0.049   1.96   0.00   0.28      0   2928    118.5   0.00   0.00   1.14   4.00   4.00   4.00   4.00   4.00   4.00   2.99   0.55   0.00   0.00      0      0      0       0     843
 1990 332   148   145   20.0      4   3.94   3263   4182      0   6128  10542      0    0.0  0.000   3097      0  0.000  0.000  0.022  0.000   1.97   0.00   0.29      0   3097    120.8   0.00   0.00   1.15   4.00   4.00   4.00   4.00   4.00   4.00   3.05   0.62   0.00   0.00      0      0      0       0     843
 1990 333   149   146   20.0      5   3.94   3263   4182    307   6164  10848   4490    6.8  0.028   3403      7  0.000  0.000  0.000  0.000   1.89   9.01   0.31      0   3403    120.8   0.00   0.00   1.16   4.00   4.00   4.00   4.00   4.00   4.00   3.05   0.64   0.00   0.00      0      0      0       0     873
 1990 334   150   147   20.0      5   3.94   3263   4182    457   6149  10999   4490   10.2  0.042   3554      7  0.000  0.000  0.000  0.000   1.86  12.86   0.32      0   3554    120.8   0.00   0.00   1.16   4.00   4.00   4.00   4.00   4.00   4.00   3.05   0.65   0.00   0.00      0      0      0       0     873
 1990 335   151   148   20.0      5   3.94   3263   4182    630   6222  11171   4490   14.0  0.056   3726      7  0.000  0.000  0.000  0.000   1.83  16.90   0.33      0   3726    120.8   0.00   0.00   1.17   4.00   4.00   4.00   4.00   4.00   4.00   3.10   0.71   0.00   0.00      0      0      0       0     904
 1990 336   152   149   20.0      5   3.94   3263   4182    840   6217  11382   4490   18.7  0.074   3937      7  0.000  0.000  0.000  0.080   1.78  21.35   0.35      0   3937    120.8   0.00   0.00   1.17   3.98   3.98   3.98   3.93   3.92   3.92   3.03   0.71   0.00   0.00      0      0      0       0     935
 1990 337   153   150   20.0      5   3.94   3263   4182   1046   6295  11587   4490   23.3  0.090   4142      7  0.000  0.000  0.000  0.135   1.74  25.25   0.36      0   4142    120.8   0.00   0.00   1.18   4.00   4.00   4.00   4.00   4.00   4.00   3.10   0.73   0.00   0.00      0      0      0       0     966
 1990 338   154   151   20.0      5   3.94   3263   4182   1278   6364  11820   4490   28.5  0.108   4375      7  0.000  0.000  0.000  0.053   1.70  29.22   0.37      0   4375    120.8   0.00   0.00   1.19   4.00   4.00   4.00   4.00   4.00   4.00   3.16   0.75   0.00   0.00      0      0      0       0     998
 1990 339   155   152   20.0      5   3.94   3263   4182   1615   6396  12157   4490   36.0  0.133   4712      7  0.000  0.000  0.000  0.389   1.63  34.28   0.39      0   4712    120.8   0.00   0.00   1.20   4.00   4.00   4.00   3.89   3.89   3.87   3.05   0.73   0.00   0.00      0      0      0       0    1030
 1990 340   156   153   20.0      5   3.94   3263   4172   1896   6364  12427   4490   42.2  0.153   4992      7  0.000  0.000  0.006  0.221   1.58  37.97   0.40      0   4992    120.7   0.00   0.00   1.20   4.00   4.00   4.00   3.89   3.89   3.87   3.05   0.73   0.00   0.00      0      0      0       0    1062
 1990 341   157   154   20.0      5   3.93   3263   4182   2108   6427  12650   4490   47.0  0.167   5205      7  0.000  0.000  0.019  0.078   1.54  40.50   0.41      0   5205    120.4   0.00   0.00   1.21   4.00   4.00   4.00   4.00   3.99   3.95   3.11   0.75   0.00   0.00      0      0      0       0    1093
 1990 342   158   155   20.0      5   3.92   3263   4182   2316   6490  12858   4490   51.6  0.180   5413      7  0.000  0.000  0.025  0.007   1.50  42.79   0.42      0   5413    120.0   0.00   0.00   1.21   4.00   4.00   4.00   4.00   4.00   4.00   3.17   0.78   0.00   0.00      0      0      0       0    1126
 1990 343   159   156   20.0      5   3.90   3263   4173   2543   6457  13076   4490   56.6  0.194   5640      7  0.000  0.000  0.032  0.000   1.47  45.09   0.43      0   5640    119.5   0.00   0.00   1.21   4.00   4.00   4.00   4.00   4.00   4.00   3.17   0.78   0.00   0.00      0      0      0       0    1158
 1990 344   160   157   20.0      5   3.88   3263   4170   2831   6425  13360   4490   63.0  0.212   5927      7  0.000  0.000  0.038  0.000   1.42  47.76   0.44      0   5927    119.0   0.00   0.00   1.21   4.00   4.00   4.00   4.00   4.00   4.00   3.17   0.78   0.00   0.00      0      0      0       0    1190
 1990 345   161   158   20.0      5   3.86   3263   4182   3022   6498  13564   4490   67.3  0.223   6119      7  0.000  0.000  0.050  0.000   1.38  49.39   0.45      0   6119    118.2   0.00   0.00   1.22   4.00   4.00   4.00   4.00   4.00   4.00   3.23   0.81   0.00   0.00      0      0      0       0    1222
 1990 346   162   159   20.0      5   3.83   3263   4182   3218   6469  13760   4490   71.7  0.234   6315      7  0.000  0.000  0.056  0.000   1.35  50.96   0.46      0   6315    117.4   0.00   0.00   1.23   3.99   3.99   3.99   3.98   3.98   3.98   3.22   0.81   0.00   0.00      0      0      0       0    1255
 1990 347   163   160   20.0      5   3.80   3263   4182   3377   6510  13918   4490   75.2  0.243   6473      7  0.000  0.000  0.063  0.000   1.33  52.16   0.47      0   6473    116.5   0.00   0.00   1.23   4.00   4.00   4.00   4.00   4.00   4.00   3.26   0.83   0.00   0.00      0      0      0       0    1287
 1990 348   164   161   20.0      5   3.77   3263   4182   3579   6552  14121   4490   79.7  0.253   6676      7  0.000  0.000  0.067  0.000   1.30  53.62   0.47      0   6676    115.5   0.00   0.00   1.24   4.00   4.00   4.00   4.00   4.00   4.00   3.30   0.85   0.00   0.00      0      0      0       0    1320
 1990 349   165   162   20.0      5   3.74   3263   4182   3872   6573  14414   4490   86.3  0.269   6969      7  0.000  0.000  0.072  0.000   1.25  55.56   0.48      0   6969    114.5   0.00   0.00   1.25   4.00   4.00   4.00   4.00   4.00   4.00   3.33   0.87   0.00   0.00      0      0      0       0    1353
 1990 350   166   163   20.0      5   3.70   3263   4182   4165   6584  14707   4490   92.8  0.283   7262      7  0.000  0.000  0.084  0.000   1.20  57.36   0.49      0   7262    113.3   0.00   0.00   1.25   4.00   4.00   4.00   4.00   4.00   4.00   3.34   0.88   0.00   0.00      0      0      0       0    1385
 1990 351   167   164   20.0      5   3.65   3263   4054   4458   6551  14872   4490   99.3  0.300   7555      7  0.000  0.000  0.097  0.000   1.18  59.01   0.51      0   7555    111.9   0.00   0.00   1.25   4.00   4.00   4.00   4.00   4.00   4.00   3.34   0.88   0.00   0.00      0      0      0       0    1418
 1990 352   168   165   20.0      5   3.60   3263   3988   4695   6519  15042   4490  104.6  0.312   7792      7  0.000  0.000  0.110  0.000   1.15  60.26   0.52      0   7792    110.4   0.00   0.00   1.25   4.00   4.00   4.00   4.00   4.00   4.00   3.34   0.88   0.00   0.00      0      0      0       0    1451
 1990 353   169   166   20.0      5   3.55   3263   4135   4955   6560  15450   4490  110.4  0.321   8052      7  0.000  0.000  0.110  0.007   1.09  61.54   0.52      0   8052    108.8   0.00   0.00   1.25   4.00   4.00   4.00   4.00   4.00   4.00   3.38   0.91   0.00   0.00      0      0      0       0    1484
 1990 354   170   167   20.0      5   3.50   3263   4182   5226   6593  15768   4490  116.4  0.331   8323      7  0.000  0.000  0.117  0.000   1.05  62.79   0.53      0   8323    107.2   0.00   0.00   1.25   4.00   4.00   4.00   4.00   4.00   4.00   3.42   0.93   0.00   0.00      0      0      0       0    1517
 1990 355   171   168   20.0      5   3.44   3263   4182   5563   6595  16104   4490  123.9  0.345   8659      7  0.000  0.000  0.135  0.000   1.00  64.24   0.54      0   8659    105.4   0.00   0.00   1.25   4.00   4.00   4.00   4.00   4.00   4.00   3.43   0.94   0.00   0.00      0      0      0       0    1549
 1990 356   172   169   20.0      5   3.37   3263   4149   5899   6562  16408   4490  131.4  0.360   8996      7  0.000  0.000  0.153  0.000   0.96  65.58   0.55      0   8996    103.4   0.00   0.00   1.25   4.00   4.00   4.00   4.00   4.00   4.00   3.43   0.94   0.00   0.00      0      0      0       0    1582
 1990 357   173   170   20.0      5   3.30   3263   4182   6236   6548  16778   4490  138.9  0.372   9333      7  0.000  0.000  0.167  0.000   0.91  66.82   0.56      0   9333    101.3   0.00   0.00   1.25   4.00   4.00   4.00   4.00   4.00   4.00   3.42   0.94   0.00   0.00      0      0      0       0    1615
 1990 358   174   171   20.0      5   3.23   3263   4182   6540   6552  17082   4490  145.7  0.383   9637      7  0.000  0.000  0.180  0.000   0.87  67.87   0.56      0   9637     99.0   0.00   0.00   1.25   4.00   4.00   4.00   4.00   4.00   4.00   3.43   0.95   0.00   0.00      0      0      0       0    1648
 1990 359   175   172   20.0      5   3.15   3263   4182   6816   6574  17358   4490  151.8  0.393   9913      7  0.000  0.000  0.195  0.000   0.84  68.76   0.57      0   9913     96.6   0.00   0.00   1.25   4.00   4.00   4.00   4.00   4.00   4.00   3.46   0.97   0.00   0.00      0      0      0       0    1681
 1990 360   176   173   20.0      5   3.07   3263   4182   7153   6578  17695   4490  159.3  0.404  10250      7  0.000  0.000  0.211  0.000   0.81  69.79   0.58      0  10250     94.1   0.00   0.00   1.25   4.00   4.00   4.00   4.00   4.00   4.00   3.47   0.98   0.00   0.00      0      0      0       0    1714
 1990 361   177   174   20.0      5   2.99   3263   4070   7417   6545  17847   4490  165.2  0.416  10514      7  0.000  0.000  0.256  0.000   0.79  70.55   0.59      0  10514     91.5   0.00   0.00   1.25   4.00   4.00   4.00   4.00   4.00   4.00   3.47   0.98   0.00   0.00      0      0      0       0    1747
 1990 362   178   175   20.0      5   2.90   3263   4156   7576   6555  18092   4490  168.8  0.419  10673      7  0.000  0.000  0.288  0.000   0.77  70.99   0.59      0  10673     88.9   0.00   0.00   1.25   4.00   4.00   4.00   4.00   4.00   4.00   3.49   0.99   0.00   0.00      0      0      0       0    1779
 1990 363   179   176   20.0      5   2.82   3263   4182   7740   6572  18282   4490  172.4  0.423  10837      7  0.000  0.000  0.279  0.000   0.76  71.43   0.59      0  10837     86.4   0.00   0.00   1.25   4.00   4.00   4.00   4.00   4.00   4.00   3.51   1.00   0.00   0.00      0      0      0       0    1812
 1990 364   180   177   20.0      5   2.74   3263   4182   8003   6570  18545   4490  178.3  0.432  11100      7  0.000  0.000  0.304  0.000   0.73  72.10   0.60      0  11100     83.9   0.00   0.00   1.25   4.00   4.00   4.00   4.00   4.00   4.00   3.51   1.01   0.00   0.00      0      0      0       0    1845
 1990 365   181   178   20.0      5   2.65   3263   4182   8340   6546  18882   4490  185.8  0.442  11437      7  0.000  0.000  0.335  0.000   0.70  72.92   0.61      0  11437     81.3   0.00   0.00   1.25   4.00   4.00   4.00   3.99   3.99   3.99   3.50   1.01   0.00   0.00      0      0      0       0    1878
 1991 001   182   179   20.0      5   2.57   3263   4044   8677   6513  19080   4490  193.3  0.455  11773      7  0.000  0.000  0.377  0.000   0.68  73.70   0.62      0  11773     78.7   0.00   0.00   1.25   4.00   4.00   4.00   3.99   3.99   3.99   3.50   1.01   0.00   0.00      0      0      0       0    1910
 1991 002   183   180   20.0      5   2.48   3263   4015   9013   6481  19388   4490  200.8  0.465  12110      7  0.000  0.000  0.423  0.000   0.66  74.43   0.62      0  12110     76.0   0.00   0.00   1.25   4.00   4.00   4.00   3.99   3.99   3.99   3.50   1.01   0.00   0.00      0      0      0       0    1943
 1991 003   184   181   20.0      5   2.39   3263   4019   9335   6450  19714   4490  207.9  0.474  12432      7  0.000  0.000  0.438  0.000   0.63  75.09   0.63      0  12432     73.3   0.00   0.00   1.25   3.99   3.99   3.99   3.97   3.97   3.97   3.49   1.00   0.00   0.00      0      0      0       0    1975
 1991 004   185   182   20.0      5   2.31   3263   3984   9672   6418  20015   4490  215.4  0.483  12768      7  0.000  0.000  0.469  0.000   0.61  75.75   0.64      0  12768     70.7   0.00   0.00   1.25   3.99   3.99   3.99   3.97   3.97   3.97   3.49   1.00   0.00   0.00      0      0      0       0    2008
 1991 005   186   183   20.0      5   2.22   3263   3897  10008   6386  20265   4490  222.9  0.494  13105      7  0.000  0.000  0.507  0.000   0.60  76.37   0.65      0  13105     68.0   0.00   0.00   1.25   3.99   3.99   3.99   3.97   3.97   3.97   3.49   1.00   0.00   0.00      0      0      0       0    2040
 1991 006   187   184   20.0      5   2.13   3263   3808  10310   6354  20478   4490  229.6  0.503  13406      7  0.000  0.000  0.536  0.000   0.59  76.90   0.65      0  13406     65.3   0.00   0.00   1.25   3.99   3.99   3.99   3.97   3.97   3.97   3.49   1.00   0.00   0.00      0      0      0       0    2072
 1991 007   188   185   20.0      5   2.05   3263   3723  10646   6322  20729   4490  237.1  0.514  13743      7  0.000  0.000  0.548  0.000   0.58  77.47   0.66      0  13743     62.8   0.00   0.00   1.25   3.99   3.99   3.99   3.97   3.97   3.97   3.49   1.00   0.00   0.00      0      0      0       0    2103
 1991 008   189   186   20.0      5   1.97   3263   3592  10983   6291  20935   4490  244.6  0.525  14080      7  0.000  0.000  0.560  0.000   0.58  78.01   0.67      0  14080     60.3   0.00   0.00   1.25   3.99   3.99   3.99   3.97   3.97   3.97   3.49   1.00   0.00   0.00      0      0      0       0    2135
 1991 009   190   187   20.0      5   1.89   3263   3414  11320   6259  21094   4490  252.1  0.537  14416      7  0.000  0.000  0.555  0.000   0.58  78.52   0.68      0  14416     57.9   0.00   0.00   1.25   3.99   3.99   3.99   3.97   3.97   3.97   3.49   1.00   0.00   0.00      0      0      0       0    2167
 1991 010   191   188   20.0      5   1.81   3263   3290  11656   6228  21306   4490  259.6  0.547  14753      7  0.000  0.000  0.552  0.000   0.58  79.01   0.69      0  14753     55.6   0.00   0.00   1.25   3.99   3.99   3.99   3.97   3.97   3.97   3.49   1.00   0.00   0.00      0      0      0       0    2198
 1991 011   192   189   20.0      5   1.81   3263   3290  11656   6228  21306   4490  259.6  0.547  14753      7  0.000  0.000  0.552  0.000   0.58  79.01   0.69      0  14753     55.6   0.00   0.00   1.25   3.99   3.99   3.99   3.97   3.97   3.97   3.49   1.00   0.00   0.00      0      0      0       0    2198
 1991 012   193   190   20.0      5   1.81   3263   3290  11656   6228  21306   4490  259.6  0.547  14753      7  0.000  0.000  0.552  0.000   0.58  79.01   0.69      0  14753     55.6   0.00   0.00   1.25   3.99   3.99   3.99   3.97   3.97   3.97   3.49   1.00   0.00   0.00      0      0      0       0    2198
 1991 013   194   191   20.0      5   1.81   3263   3290  11656   6228  21306   4490  259.6  0.547  14753      7  0.000  0.000  0.552  0.000   0.58  79.01   0.69      0  14753     55.6   0.00   0.00   1.25   3.99   3.99   3.99   3.97   3.97   3.97   3.49   1.00   0.00   0.00      0      0      0       0    2198
 1991 014   195   192   20.0      5   1.81   3263   3290  11656   6228  21306   4490  259.6  0.547  14753      7  0.000  0.000  0.552  0.000   0.58  79.01   0.69      0  14753     55.6   0.00   0.00   1.25   3.99   3.99   3.99   3.97   3.97   3.97   3.49   1.00   0.00   0.00      0      0      0       0    2198

*DSSAT Cropping System Model Ver. 4.0.2.000               Aug 01, 2016; 14:59:40

*RUN   2        : UYMZ                    
 MODEL          : MZCER040 - Maize           
 EXPERIMENT     : UYMZ0097 MZ    late to create DSS                             
 TREATMENT  1   : UYMZ                    

@YEAR DOY   DAS   DAP   L#SD   GSTD   LAID   LWAD   SWAD   GWAD   RWAD   CWAD   G#AD   GWGD   HIAD   PWAD   P#AD   WSPD   WSGD   NSTD   EWSD   LN%D   SH%D   HIPD   PWDD   PWTD     SLAD   CHTD   CWID   RDPD   RL1D   RL2D   RL3D   RL4D   RL5D   RL6D   RL7D   RL8D   RL9D   RL10   CDAD   LDAD   SDAD   SNW0C   SNW1C
 1991 187     3     0    0.0      0   0.00      0      0      0      0      0      0    0.0  0.000      0      0  0.000  0.000  0.000  0.000   0.00   0.00   0.00      0      0      0.0   0.00   0.00   0.03   0.00   0.00   0.00   0.00   0.00   0.00   0.00   0.00   0.00   0.00      0      0      0       0       0
 1991 188     4     1    0.0      0   0.00      0      0      0      0      0      0    0.0  0.000      0      0  0.000  0.000  0.000  0.000   0.00   0.00   0.00      0      0      0.0   0.00   0.00   0.03   0.00   0.00   0.00   0.00   0.00   0.00   0.00   0.00   0.00   0.00      0      0      0       0       0
 1991 189     5     2    0.0      0   0.00      0      0      0      0      0      0    0.0  0.000      0      0  0.000  0.000  0.000  0.000   0.00   0.00   0.00      0      0      0.0   0.00   0.00   0.03   0.00   0.00   0.00   0.00   0.00   0.00   0.00   0.00   0.00   0.00      0      0      0       0       0
 1991 190     6     3    0.0      0   0.00      0      0      0      0      0      0    0.0  0.000      0      0  0.000  0.000  0.000  0.000   0.00   0.00   0.00      0      0      0.0   0.00   0.00   0.03   0.00   0.00   0.00   0.00   0.00   0.00   0.00   0.00   0.00   0.00      0      0      0       0       0
 1991 191     7     4    0.0      0   0.00      0      0      0      0      0      0    0.0  0.000      0      0  0.000  0.000  0.000  0.000   0.00   0.00   0.00      0      0      0.0   0.00   0.00   0.04   0.00   0.00   0.00   0.00   0.00   0.00   0.00   0.00   0.00   0.00      0      0      0       0       0
 1991 192     8     5    0.0      0   0.00      0      0      0      0      0      0    0.0  0.000      0      0  0.000  0.000  0.000  0.000   0.00   0.00   0.00      0      0      0.0   0.00   0.00   0.04   0.00   0.00   0.00   0.00   0.00   0.00   0.00   0.00   0.00   0.00      0      0      0       0       0
 1991 193     9     6    0.0      0   0.00      0      0      0      0      0      0    0.0  0.000      0      0  0.000  0.000  0.000  0.000   0.00   0.00   0.00      0      0      0.0   0.00   0.00   0.04   0.00   0.00   0.00   0.00   0.00   0.00   0.00   0.00   0.00   0.00      0      0      0       0       0
 1991 194    10     7    0.0      0   0.00      0      0      0      0      0      0    0.0  0.000      0      0  0.000  0.000  0.000  0.000   0.00   0.00   0.00      0      0      0.0   0.00   0.00   0.04   0.00   0.00   0.00   0.00   0.00   0.00   0.00   0.00   0.00   0.00      0      0      0       0       0
 1991 195    11     8    0.0      0   0.00      0      0      0      0      0      0    0.0  0.000      0      0  0.000  0.000  0.000  0.000   0.00   0.00   0.00      0      0      0.0   0.00   0.00   0.04   0.00   0.00   0.00   0.00   0.00   0.00   0.00   0.00   0.00   0.00      0      0      0       0       0
 1991 196    12     9    0.0      0   0.00      0      0      0      0      0      0    0.0  0.000      0      0  0.000  0.000  0.000  0.000   0.00   0.00   0.00      0      0      0.0   0.00   0.00   0.04   0.00   0.00   0.00   0.00   0.00   0.00   0.00   0.00   0.00   0.00      0      0      0       0       0
 1991 197    13    10    0.0      0   0.00      0      0      0      0      0      0    0.0  0.000      0      0  0.000  0.000  0.000  0.000   0.00   0.00   0.00      0      0      0.0   0.00   0.00   0.04   0.00   0.00   0.00   0.00   0.00   0.00   0.00   0.00   0.00   0.00      0      0      0       0       0
 1991 198    14    11    0.0      0   0.00      0      0      0      0      0      0    0.0  0.000      0      0  0.000  0.000  0.000  0.000   0.00   0.00   0.00      0      0      0.0   0.00   0.00   0.05   0.00   0.00   0.00   0.00   0.00   0.00   0.00   0.00   0.00   0.00      0      0      0       0       0
 1991 199    15    12    0.0      0   0.00      0      0      0      0      0      0    0.0  0.000      0      0  0.000  0.000  0.000  0.000   0.00   0.00   0.00      0      0      0.0   0.00   0.00   0.05   0.00   0.00   0.00   0.00   0.00   0.00   0.00   0.00   0.00   0.00      0      0      0       0       0
 1991 200    16    13    0.0      0   0.00      0      0      0      0      0      0    0.0  0.000      0      0  0.000  0.000  0.000  0.000   0.00   0.00   0.00      0      0      0.0   0.00   0.00   0.06   0.00   0.00   0.00   0.00   0.00   0.00   0.00   0.00   0.00   0.00      0      0      0       0       0
 1991 201    17    14    0.0      0   0.00      0      0      0      0      0      0    0.0  0.000      0      0  0.000  0.000  0.000  0.000   0.00   0.00   0.00      0      0      0.0   0.00   0.00   0.06   0.00   0.00   0.00   0.00   0.00   0.00   0.00   0.00   0.00   0.00      0      0      0       0       0
 1991 202    18    15    0.0      0   0.00      0      0      0      0      0      0    0.0  0.000      0      0  0.000  0.000  0.000  0.000   0.00   0.00   0.00      0      0      0.0   0.00   0.00   0.06   0.00   0.00   0.00   0.00   0.00   0.00   0.00   0.00   0.00   0.00      0      0      0       0       0
 1991 203    19    16    0.0      0   0.00      0      0      0      0      0      0    0.0  0.000      0      0  0.000  0.000  0.000  0.000   0.00   0.00   0.00      0      0      0.0   0.00   0.00   0.07   0.00   0.00   0.00   0.00   0.00   0.00   0.00   0.00   0.00   0.00      0      0      0       0       0
 1991 204    20    17    0.0      0   0.00      0      0      0      0      0      0    0.0  0.000      0      0  0.000  0.000  0.000  0.000   0.00   0.00   0.00      0      0      0.0   0.00   0.00   0.07   0.00   0.00   0.00   0.00   0.00   0.00   0.00   0.00   0.00   0.00      0      0      0       0       0
 1991 205    21    18    0.0      0   0.00      0      0      0      0      0      0    0.0  0.000      0      0  0.000  0.000  0.000  0.000   0.00   0.00   0.00      0      0      0.0   0.00   0.00   0.07   0.00   0.00   0.00   0.00   0.00   0.00   0.00   0.00   0.00   0.00      0      0      0       0       0
 1991 206    22    19    0.0      0   0.00      0      0      0      0      0      0    0.0  0.000      0      0  0.000  0.000  0.000  0.000   0.00   0.00   0.00      0      0      0.0   0.00   0.00   0.07   0.00   0.00   0.00   0.00   0.00   0.00   0.00   0.00   0.00   0.00      0      0      0       0       0
 1991 207    23    20    0.0      0   0.00      0      0      0      0      0      0    0.0  0.000      0      0  0.000  0.000  0.000  0.000   0.00   0.00   0.00      0      0      0.0   0.00   0.00   0.08   0.00   0.00   0.00   0.00   0.00   0.00   0.00   0.00   0.00   0.00      0      0      0       0       0
 1991 208    24    21    0.0      0   0.00      0      0      0      0      0      0    0.0  0.000      0      0  0.000  0.000  0.000  0.000   0.00   0.00   0.00      0      0      0.0   0.00   0.00   0.10   0.00   0.00   0.00   0.00   0.00   0.00   0.00   0.00   0.00   0.00      0      0      0       0       0
 1991 209    25    22    2.0      1   0.00     14     14      0     14     28      0    0.0  0.000      0      0  0.000  0.000  0.012  0.000   4.40   0.00   0.00      0      0     25.0   0.00   0.00   0.11   0.28   0.07   0.00   0.00   0.00   0.00   0.00   0.00   0.00   0.00      0      0      0       0       0
 1991 210    26    23    2.0      1   0.01     14     14      0     14     28      0    0.0  0.000      0      0  0.000  0.000  0.018  0.000   4.55   0.00   0.00      0      0     36.5   0.00   0.00   0.12   0.26   0.07   0.00   0.00   0.00   0.00   0.00   0.00   0.00   0.00      0      0      0       0       0
 1991 211    27    24    2.0      1   0.01     14     14      0     14     28      0    0.0  0.000      0      0  0.000  0.000  0.000  0.000   4.55   0.00   0.00      0      0     38.7   0.00   0.00   0.12   0.24   0.06   0.00   0.00   0.00   0.00   0.00   0.00   0.00   0.00      0      0      0       0       0
 1991 212    28    25    2.0      1   0.01     14     14      0     14     28      0    0.0  0.000      0      0  0.000  0.000  0.000  0.069   4.54   0.00   0.00      0      0     39.0   0.00   0.00   0.12   0.24   0.07   0.00   0.00   0.00   0.00   0.00   0.00   0.00   0.00      0      0      0       0       0
 1991 213    29    26    2.0      1   0.00     14     14      0     14     28      0    0.0  0.000      0      0  0.000  0.000  0.000  0.000   4.54   0.00   0.00      0      0     31.4   0.00   0.00   0.12   0.24   0.07   0.00   0.00   0.00   0.00   0.00   0.00   0.00   0.00      0      0      0       0       0
 1991 214    30    27    2.0      1   0.00     14     14      0     14     28      0    0.0  0.000      0      0  0.000  0.000  0.000  0.000   4.54   0.00   0.00      0      0     22.9   0.00   0.00   0.12   0.23   0.07   0.00   0.00   0.00   0.00   0.00   0.00   0.00   0.00      0      0      0       0       0
 1991 215    31    28    2.0      1   0.00     14     14      0     15     28      0    0.0  0.000      0      0  0.000  0.000  0.000  0.000   4.54   0.00   0.00      0      0     19.4   0.00   0.00   0.13   0.23   0.07   0.00   0.00   0.00   0.00   0.00   0.00   0.00   0.00      0      0      0       0       0
 1991 216    32    29    2.0      1   0.00     14     14      0     14     28      0    0.0  0.000      0      0  0.000  0.000  0.000  0.000   4.54   0.00   0.00      0      0     16.9   0.00   0.00   0.13   0.23   0.07   0.00   0.00   0.00   0.00   0.00   0.00   0.00   0.00      0      0      0       0       0
 1991 217    33    30    2.0      1   0.00     14     14      0     14     28      0    0.0  0.000      0      0  0.000  0.000  0.000  0.000   4.54   0.00   0.00      0      0     10.6   0.00   0.00   0.13   0.23   0.07   0.00   0.00   0.00   0.00   0.00   0.00   0.00   0.00      0      0      0       0       0
 1991 218    34    31    2.0      1   0.00     14     14      0     14     28      0    0.0  0.000      0      0  0.000  0.000  0.000  0.000   4.54   0.00   0.00      0      0      4.6   0.00   0.00   0.13   0.23   0.07   0.00   0.00   0.00   0.00   0.00   0.00   0.00   0.00      0      0      0       0       0
 1991 219    35    32    2.0      1   0.00     14     14      0     14     28      0    0.0  0.000      0      0  0.000  0.000  0.000  0.000   4.54   0.00   0.00      0      0      5.4   0.00   0.00   0.13   0.23   0.07   0.00   0.00   0.00   0.00   0.00   0.00   0.00   0.00      0      0      0       0       0
 1991 220    36    33    2.0      1   0.00     14     14      0     14     28      0    0.0  0.000      0      0  0.000  0.000  0.000  0.000   4.54   0.00   0.00      0      0     10.9   0.00   0.00   0.13   0.23   0.07   0.00   0.00   0.00   0.00   0.00   0.00   0.00   0.00      0      0      0       0       0
 1991 221    37    34    2.0      1   0.00     14     14      0     14     28      0    0.0  0.000      0      0  0.000  0.000  0.000  0.000   4.54   0.00   0.00      0      0     15.5   0.00   0.00   0.13   0.21   0.07   0.00   0.00   0.00   0.00   0.00   0.00   0.00   0.00      0      0      0       0       0
 1991 222    38    35    2.0      1   0.00     14     14      0     14     28      0    0.0  0.000      0      0  0.000  0.000  0.000  0.000   4.54   0.00   0.00      0      0     21.6   0.00   0.00   0.14   0.20   0.06   0.00   0.00   0.00   0.00   0.00   0.00   0.00   0.00      0      0      0       0       0
 1991 223    39    36    2.0      1   0.00     14     14      0     14     28      0    0.0  0.000      0      0  0.000  0.000  0.000  0.128   4.54   0.00   0.00      0      0     21.9   0.00   0.00   0.14   0.19   0.06   0.00   0.00   0.00   0.00   0.00   0.00   0.00   0.00      0      0      0       0       0
 1991 224    40    37    2.0      1   0.00     14     14      0     14     28      0    0.0  0.000      0      0  0.000  0.000  0.000  0.000   4.54   0.00   0.00      0      0     16.3   0.00   0.00   0.14   0.19   0.06   0.00   0.00   0.00   0.00   0.00   0.00   0.00   0.00      0      0      0       0       0
 1991 225    41    38    3.0      1   0.00     14     14      0     15     28      0    0.0  0.000      0      0  0.000  0.000  0.000  0.000   4.54   0.00   0.00      0      0     26.1   0.00   0.00   0.14   0.19   0.07   0.00   0.00   0.00   0.00   0.00   0.00   0.00   0.00      0      0      0       0       0
 1991 226    42    39    3.0      1   0.01     14     14      0     15     28      0    0.0  0.000      0      0  0.000  0.000  0.000  0.000   4.54   0.00   0.00      0      0     48.4   0.00   0.00   0.15   0.19   0.08   0.00   0.00   0.00   0.00   0.00   0.00   0.00   0.00      0      0      0       0       0
 1991 227    43    40    3.0      1   0.01     14     14      0     15     28      0    0.0  0.000      0      0  0.000  0.000  0.000  0.000   4.54   0.00   0.00      0      0     79.0   0.00   0.00   0.17   0.19   0.08   0.00   0.00   0.00   0.00   0.00   0.00   0.00   0.00      0      0      0       0       0
 1991 228    44    41    4.0      1   0.03     14     14      0     16     28      0    0.0  0.000      0      0  0.000  0.000  0.000  0.000   4.54   0.00   0.00      0      0    184.6   0.00   0.00   0.18   0.19   0.09   0.01   0.00   0.00   0.00   0.00   0.00   0.00   0.00      0      0      0       0       0
 1991 229    45    42    4.0      1   0.04     14     14      0     19     28      0    0.0  0.000      0      0  0.000  0.000  0.000  0.000   4.31   0.00   0.00      0      0    294.9   0.00   0.00   0.19   0.20   0.12   0.02   0.00   0.00   0.00   0.00   0.00   0.00   0.00      0      0      0       0       0
 1991 230    46    43    4.0      1   0.05     18     14      0     21     32      0    0.0  0.000      0      0  0.000  0.000  0.000  0.000   3.89   0.00   0.00      0      0    290.1   0.00   0.00   0.20   0.20   0.13   0.04   0.00   0.00   0.00   0.00   0.00   0.00   0.00      0      0      0       0       0
 1991 231    47    44    5.0      1   0.07     24     14      0     23     38      0    0.0  0.000      0      0  0.000  0.000  0.000  0.000   3.61   0.00   0.00      0      0    281.3   0.00   0.00   0.21   0.21   0.15   0.05   0.00   0.00   0.00   0.00   0.00   0.00   0.00      0      0      0       0       0
 1991 232    48    45    5.0      1   0.08     30     14      0     26     44      0    0.0  0.000      0      0  0.000  0.000  0.000  0.000   3.69   0.00   0.00      0      0    273.4   0.00   0.00   0.22   0.24   0.16   0.06   0.00   0.00   0.00   0.00   0.00   0.00   0.00      0      0      0       0       1
 1991 233    49    46    5.0      1   0.10     37     14      0     31     51      0    0.0  0.000      0      0  0.000  0.000  0.000  0.000   3.70   0.00   0.00      0      0    265.9   0.00   0.00   0.23   0.31   0.19   0.09   0.00   0.00   0.00   0.00   0.00   0.00   0.00      0      0      0       0       1
 1991 234    50    47    5.0      1   0.12     47     14      0     35     61      0    0.0  0.000      0      0  0.000  0.000  0.000  0.000   3.56   0.00   0.00      0      0    256.8   0.00   0.00   0.24   0.33   0.21   0.10   0.00   0.00   0.00   0.00   0.00   0.00   0.00      0      0      0       0       1
 1991 235    51    48    6.0      1   0.13     53     14      0     36     67      0    0.0  0.000      0      0  0.000  0.000  0.000  0.000   3.86   0.00   0.00      0      0    252.2   0.00   0.00   0.25   0.32   0.21   0.10   0.00   0.00   0.00   0.00   0.00   0.00   0.00      0      0      0       0       1
 1991 236    52    49    6.0      1   0.14     58     14      0     38     72      0    0.0  0.000      0      0  0.000  0.000  0.000  0.148   3.95   0.00   0.00      0      0    248.9   0.00   0.00   0.25   0.32   0.22   0.11   0.00   0.00   0.00   0.00   0.00   0.00   0.00      0      0      0       0       1
 1991 237    53    50    6.0      1   0.15     62     14      0     45     76      0    0.0  0.000      0      0  0.000  0.000  0.000  0.398   3.94   0.00   0.00      0      0    245.7   0.00   0.00   0.26   0.35   0.25   0.13   0.00   0.00   0.00   0.00   0.00   0.00   0.00      0      0      0       0       1
 1991 238    54    51    6.0      1   0.13     63     14      0     47     77      0    0.0  0.000      0      0  0.000  0.000  0.000  0.338   4.17   0.00   0.00      0      0    211.8   0.00   0.00   0.26   0.35   0.26   0.14   0.00   0.00   0.00   0.00   0.00   0.00   0.00      0      0      0       0       2
 1991 239    55    52    6.0      1   0.12     66     14      0     60     80      0    0.0  0.000      0      0  0.000  0.000  0.000  0.234   4.04   0.00   0.00      0      0    184.1   0.00   0.00   0.26   0.43   0.34   0.20   0.00   0.00   0.00   0.00   0.00   0.00   0.00      0      0      0       0       2
 1991 240    56    53    6.0      1   0.13     71     14      0     62     85      0    0.0  0.000      0      0  0.000  0.000  0.000  0.074   3.78   0.00   0.00      0      0    185.5   0.00   0.00   0.27   0.44   0.35   0.20   0.00   0.00   0.00   0.00   0.00   0.00   0.00      0      0      0       0       2
 1991 241    57    54    6.0      1   0.15     82     14      0     69     96      0    0.0  0.000      0      0  0.000  0.000  0.015  0.035   3.69   0.00   0.00      0      0    186.8   0.00   0.00   0.28   0.48   0.40   0.24   0.00   0.00   0.00   0.00   0.00   0.00   0.00      0      0      0       0       2
 1991 242    58    55    7.0      1   0.17     92     14      0     71    106      0    0.0  0.000      0      0  0.000  0.000  0.000  0.006   3.72   0.00   0.00      0      0    187.5   0.00   0.00   0.29   0.50   0.42   0.25   0.00   0.00   0.00   0.00   0.00   0.00   0.00      0      0      0       0       3
 1991 243    59    56    7.0      1   0.18     97     14      0     74    111      0    0.0  0.000      0      0  0.000  0.000  0.000  0.000   3.97   0.00   0.00      0      0    187.6   0.00   0.00   0.29   0.52   0.44   0.27   0.00   0.00   0.00   0.00   0.00   0.00   0.00      0      0      0       0       3
 1991 244    60    57    7.0      1   0.20    105     14      0     93    119      0    0.0  0.000      0      0  0.000  0.000  0.000  0.000   3.85   0.00   0.00      0      0    187.5   0.00   0.00   0.29   0.65   0.57   0.39   0.00   0.00   0.00   0.00   0.00   0.00   0.00      0      0      0       0       3
[...]
 1995 328   144   141   21.0      3   3.46   3774   3347      0   5304   7122      0    0.0  0.000      0      0  0.000  0.000  0.027  0.000   2.14   0.00   0.00      0      0     91.6   0.00   0.00   0.97   4.00   4.00   4.00   4.00   4.00   3.65   1.65   0.00   0.00   0.00      0      0      0       0     715
 1995 329   145   142   21.0      3   3.50   3828   3504      0   5408   7332      0    0.0  0.000      0      0  0.000  0.000  0.027  0.000   2.09   0.00   0.00      0      0     91.4   0.00   0.00   0.98   4.00   4.00   4.00   4.00   4.00   3.74   2.04   0.00   0.00   0.00      0      0      0       0     742
 1995 330   146   143   21.0      3   3.54   3890   3685      0   5550   7575      0    0.0  0.000      0      0  0.000  0.000  0.028  0.000   2.04   0.00   0.00      0      0     91.1   0.00   0.00   0.99   4.00   4.00   4.00   4.00   4.00   3.87   2.51   0.00   0.00   0.00      0      0      0       0     769
 1995 331   147   144   21.0      3   3.56   3922   3780      0   5752   7701      0    0.0  0.000      0      0  0.000  0.000  0.030  0.000   2.01   0.00   0.00      0      0     90.8   0.00   0.00   1.00   4.00   4.00   4.00   4.00   4.00   4.00   3.06   0.00   0.00   0.00      0      0      0       0     797
 1995 332   148   145   21.0      3   3.59   3969   3917      0   5871   7886      0    0.0  0.000      0      0  0.000  0.000  0.033  0.000   1.98   0.00   0.00      0      0     90.5   0.00   0.00   1.00   4.00   4.00   4.00   4.00   4.00   4.00   3.36   0.00   0.00   0.00      0      0      0       0     825
 1995 333   149   146   21.0      3   3.64   4036   4112      0   6018   8148      0    0.0  0.000      0      0  0.000  0.000  0.033  0.000   1.92   0.00   0.00      0      0     90.2   0.00   0.00   1.02   4.00   4.00   4.00   4.00   4.00   4.00   3.64   0.00   0.00   0.00      0      0      0       0     855
 1995 334   150   147   21.0      4   3.62   3994   3505      0   6114   8385      0    0.0  0.000    886      0  0.000  0.000  0.034  0.000   2.09   0.00   0.11      0    886     90.8   0.00   0.00   1.03   4.00   4.00   4.00   4.00   4.00   4.00   3.77   0.00   0.00   0.00      0      0      0       0     885
 1995 335   151   148   21.0      4   3.61   3949   3581      0   6151   8606      0    0.0  0.000   1076      0  0.000  0.000  0.035  0.000   2.09   0.00   0.13      0   1076     91.4   0.00   0.00   1.04   4.00   4.00   4.00   4.00   4.00   4.00   3.80   0.00   0.00   0.00      0      0      0       0     915
 1995 336   152   149   21.0      4   3.60   3902   3652      0   6303   8807      0    0.0  0.000   1253      0  0.000  0.000  0.023  0.000   2.09   0.00   0.14      0   1253     92.2   0.00   0.00   1.06   4.00   4.00   4.00   4.00   4.00   4.00   3.91   0.00   0.00   0.00      0      0      0       0     946
 1995 337   153   150   21.0      4   3.59   3852   3730      0   6437   9030      0    0.0  0.000   1448      0  0.000  0.000  0.022  0.000   2.08   0.00   0.16      0   1448     93.2   0.00   0.00   1.07   4.00   4.00   4.00   4.00   4.00   4.00   4.00   0.00   0.00   0.00      0      0      0       0     978
 1995 338   154   151   21.0      4   3.58   3799   3816      0   6519   9279      0    0.0  0.000   1664      0  0.000  0.000  0.022  0.000   2.08   0.00   0.18      0   1664     94.2   0.00   0.00   1.08   4.00   4.00   4.00   4.00   4.00   4.00   4.00   0.00   0.00   0.00      0      0      0       0    1010
 1995 339   155   152   21.0      4   3.57   3743   3913      0   6591   9563      0    0.0  0.000   1907      0  0.000  0.000  0.022  0.000   2.07   0.00   0.20      0   1907     95.3   0.00   0.00   1.09   4.00   4.00   4.00   4.00   4.00   4.00   4.00   0.06   0.00   0.00      0      0      0       0    1042
 1995 340   156   153   21.0      4   3.56   3683   4025      0   6656   9895      0    0.0  0.000   2187      0  0.000  0.000  0.022  0.000   2.05   0.00   0.22      0   2187     96.6   0.00   0.00   1.11   4.00   4.00   4.00   4.00   4.00   4.00   4.00   0.16   0.00   0.00      0      0      0       0    1075
 1995 341   157   154   21.0      4   3.55   3620   4110      0   6682  10130      0    0.0  0.000   2399      0  0.000  0.000  0.022  0.000   2.04   0.00   0.24      0   2399     98.0   0.00   0.00   1.12   4.00   4.00   4.00   4.00   4.00   4.00   4.00   0.24   0.00   0.00      0      0      0       0    1109
 1995 342   158   155   21.0      4   3.54   3556   4143      0   6881  10180      0    0.0  0.000   2480      0  0.000  0.000  0.022  0.000   2.04   0.00   0.24      0   2480     99.5   0.00   0.00   1.12   4.00   4.00   4.00   4.00   4.00   4.00   4.00   0.56   0.00   0.00      0      0      0       0    1142
 1995 343   159   156   21.0      4   3.53   3491   4188      0   7068  10271      0    0.0  0.000   2592      0  0.000  0.000  0.022  0.000   2.03   0.00   0.25      0   2592    101.1   0.00   0.00   1.13   4.00   4.00   4.00   4.00   4.00   4.00   4.00   0.87   0.00   0.00      0      0      0       0    1176
 1995 344   160   157   21.0      4   3.52   3423   4260      0   7209  10455      0    0.0  0.000   2772      0  0.000  0.000  0.022  0.000   2.02   0.00   0.27      0   2772    102.9   0.00   0.00   1.13   4.00   4.00   4.00   4.00   4.00   4.00   4.00   1.13   0.00   0.00      0      0      0       0    1212
 1995 345   161   158   21.0      4   3.51   3353   4312      0   7377  10569      0    0.0  0.000   2904      0  0.000  0.000  0.022  0.000   2.00   0.00   0.27      0   2904    104.7   0.00   0.00   1.14   4.00   4.00   4.00   4.00   4.00   4.00   4.00   1.42   0.00   0.00      0      0      0       0    1248
 1995 346   162   159   21.0      4   3.50   3281   4375      0   7518  10718      0    0.0  0.000   3061      0  0.000  0.000  0.022  0.000   1.98   0.00   0.29      0   3061    106.7   0.00   0.00   1.15   4.00   4.00   4.00   4.00   4.00   4.00   4.00   1.67   0.00   0.00      0      0      0       0    1285
 1995 347   163   160   21.0      4   3.49   3208   4427      0   7692  10826      0    0.0  0.000   3192      0  0.000  0.000  0.022  0.000   1.96   0.00   0.29      0   3192    108.9   0.00   0.00   1.15   4.00   4.00   4.00   4.00   4.00   4.00   4.00   1.96   0.00   0.00      0      0      0       0    1322
 1995 348   164   161   21.0      5   3.49   3208   4427    193   7748  11019   4554    4.2  0.018   3385      7  0.000  0.000  0.000  0.000   1.91   5.70   0.31      0   3385    108.9   0.00   0.00   1.16   4.00   4.00   4.00   4.00   4.00   4.00   4.00   2.07   0.00   0.00      0      0      0       0    1361
 1995 349   165   162   21.0      5   3.49   3208   4427    519   7762  11346   4554   11.4  0.046   3711      7  0.000  0.000  0.000  0.000   1.84  13.99   0.33      0   3711    108.9   0.00   0.00   1.17   4.00   4.00   4.00   4.00   4.00   4.00   4.00   2.13   0.00   0.00      0      0      0       0    1399
 1995 350   166   163   21.0      5   3.49   3208   4427    861   7787  11687   4554   18.9  0.074   4052      7  0.000  0.000  0.000  0.000   1.77  21.24   0.35      0   4052    108.9   0.00   0.00   1.18   4.00   4.00   4.00   4.00   4.00   4.00   4.00   2.19   0.00   0.00      0      0      0       0    1438
 1995 351   167   164   21.0      5   3.49   3208   4427   1202   7822  12029   4554   26.4  0.100   4394      7  0.000  0.000  0.000  0.000   1.70  27.36   0.37      0   4394    108.9   0.00   0.00   1.19   4.00   4.00   4.00   4.00   4.00   4.00   4.00   2.25   0.00   0.00      0      0      0       0    1477
 1995 352   168   165   21.0      5   3.49   3208   4427   1544   7828  12370   4554   33.9  0.125   4735      7  0.000  0.000  0.000  0.000   1.62  32.60   0.38      0   4735    108.9   0.00   0.00   1.21   4.00   4.00   4.00   4.00   4.00   4.00   4.00   2.28   0.00   0.00      0      0      0       0    1516
 1995 353   169   166   21.0      5   3.49   3208   4427   1774   7890  12601   4554   39.0  0.141   4966      7  0.000  0.000  0.008  0.000   1.58  35.73   0.39      0   4966    108.8   0.00   0.00   1.21   4.00   4.00   4.00   4.00   4.00   4.00   4.00   2.33   0.00   0.00      0      0      0       0    1555
 1995 354   170   167   21.0      5   3.48   3208   4427   2063   7930  12890   4554   45.3  0.160   5255      7  0.000  0.000  0.015  0.000   1.52  39.26   0.41      0   5255    108.6   0.00   0.00   1.22   4.00   4.00   4.00   4.00   4.00   4.00   4.00   2.34   0.00   0.00      0      0      0       0    1595
 1995 355   171   168   21.0      5   3.47   3208   4427   2405   7897  13231   4554   52.8  0.182   5596      7  0.000  0.000  0.022  0.000   1.46  42.97   0.42      0   5596    108.3   0.00   0.00   1.24   4.00   4.00   4.00   3.99   3.99   3.99   3.98   2.34   0.00   0.00      0      0      0       0    1635
 1995 356   172   169   21.0      5   3.46   3208   4351   2746   7858  13496   4554   60.3  0.203   5938      7  0.000  0.000  0.036  0.000   1.41  46.25   0.44      0   5938    107.8   0.00   0.00   1.24   4.00   4.00   4.00   3.99   3.99   3.99   3.98   2.34   0.00   0.00      0      0      0       0    1674
 1995 357   173   170   21.0      5   3.43   3208   4191   3088   7819  13678   4554   67.8  0.226   6279      7  0.000  0.000  0.050  0.000   1.38  49.17   0.46      0   6279    107.1   0.00   0.00   1.24   4.00   4.00   4.00   3.99   3.99   3.99   3.98   2.34   0.00   0.00      0      0      0       0    1713
 1995 358   174   171   21.0      5   3.41   3208   4141   3399   7779  13938   4554   74.6  0.244   6590      7  0.000  0.000  0.060  0.000   1.33  51.57   0.47      0   6590    106.3   0.00   0.00   1.24   4.00   4.00   4.00   3.99   3.99   3.99   3.98   2.34   0.00   0.00      0      0      0       0    1752
 1995 359   175   172   21.0      5   3.38   3208   4320   3629   7830  14348   4554   79.7  0.253   6821      7  0.000  0.000  0.064  0.000   1.26  53.21   0.48      0   6821    105.4   0.00   0.00   1.24   4.00   4.00   4.00   4.00   4.00   4.00   4.00   2.36   0.00   0.00      0      0      0       0    1791
 1995 360   176   173   21.0      5   3.35   3208   4427   3929   7856  14756   4554   86.3  0.266   7121      7  0.000  0.000  0.069  0.000   1.19  55.18   0.48      0   7121    104.5   0.00   0.00   1.25   4.00   4.00   4.00   4.00   4.00   4.00   4.00   2.37   0.00   0.00      0      0      0       0    1830
 1995 361   177   174   21.0      5   3.31   3208   4427   4212   7889  15039   4554   92.5  0.280   7404      7  0.000  0.000  0.095  0.000   1.15  56.89   0.49      0   7404    103.3   0.00   0.00   1.25   4.00   4.00   4.00   4.00   4.00   4.00   4.00   2.39   0.00   0.00      0      0      0       0    1870
 1995 362   178   175   21.0      5   3.27   3208   4427   4546   7907  15372   4554   99.8  0.296   7737      7  0.000  0.000  0.113  0.000   1.10  58.75   0.50      0   7737    101.8   0.00   0.00   1.25   4.00   4.00   4.00   4.00   4.00   4.00   4.00   2.40   0.00   0.00      0      0      0       0    1909
 1995 363   179   176   21.0      5   3.21   3208   4427   4887   7920  15713   4554  107.3  0.311   8079      7  0.000  0.000  0.127  0.000   1.05  60.49   0.51      0   8079    100.2   0.00   0.00   1.25   4.00   4.00   4.00   4.00   4.00   4.00   4.00   2.41   0.00   0.00      0      0      0       0    1949
 1995 364   180   177   21.0      5   3.16   3208   4427   5229   7930  16055   4554  114.8  0.326   8420      7  0.000  0.000  0.141  0.000   1.00  62.10   0.52      0   8420     98.4   0.00   0.00   1.25   4.00   4.00   4.00   4.00   4.00   4.00   4.00   2.42   0.00   0.00      0      0      0       0    1988
 1995 365   181   178   21.0      5   3.10   3208   4427   5545   7940  16372   4554  121.8  0.339   8737      7  0.000  0.000  0.156  0.000   0.96  63.47   0.53      0   8737     96.5   0.00   0.00   1.25   4.00   4.00   4.00   4.00   4.00   4.00   4.00   2.42   0.00   0.00      0      0      0       0    2028
 1996 001   182   179   21.0      5   3.03   3208   4427   5842   7956  16669   4554  128.3  0.350   9034      7  0.000  0.000  0.170  0.000   0.92  64.67   0.54      0   9034     94.5   0.00   0.00   1.25   4.00   4.00   4.00   4.00   4.00   4.00   4.00   2.43   0.00   0.00      0      0      0       0    2068
 1996 002   183   180   21.0      5   2.96   3208   4427   6184   7951  17010   4554  135.8  0.364   9375      7  0.000  0.000  0.180  0.000   0.88  65.96   0.55      0   9375     92.3   0.00   0.00   1.25   4.00   4.00   4.00   4.00   4.00   4.00   4.00   2.43   0.00   0.00      0      0      0       0    2107
 1996 003   184   181   21.0      5   2.89   3208   4427   6525   7917  17352   4554  143.3  0.376   9717      7  0.000  0.000  0.192  0.000   0.84  67.15   0.56      0   9717     90.1   0.00   0.00   1.25   4.00   4.00   4.00   3.99   3.99   3.99   3.98   2.42   0.00   0.00      0      0      0       0    2147
 1996 004   185   182   21.0      5   2.82   3208   4277   6824   7878  17500   4554  149.8  0.390  10015      7  0.000  0.000  0.222  0.000   0.83  68.13   0.57      0  10015     87.8   0.00   0.00   1.25   4.00   4.00   4.00   3.99   3.99   3.99   3.98   2.42   0.00   0.00      0      0      0       0    2187
 1996 005   186   183   21.0      5   2.74   3208   4357   7115   7878  17871   4554  156.3  0.398  10307      7  0.000  0.000  0.257  0.000   0.79  69.03   0.58      0  10307     85.4   0.00   0.00   1.25   4.00   4.00   4.00   4.00   4.00   4.00   3.99   2.43   0.00   0.00      0      0      0       0    2226
 1996 006   187   184   21.0      5   2.66   3208   4427   7363   7886  18189   4554  161.7  0.405  10554      7  0.000  0.000  0.267  0.000   0.76  69.76   0.58      0  10554     83.0   0.00   0.00   1.25   4.00   4.00   4.00   4.00   4.00   4.00   4.00   2.43   0.00   0.00      0      0      0       0    2266
 1996 007   188   185   21.0      5   2.58   3208   4427   7654   7878  18481   4554  168.1  0.414  10846      7  0.000  0.000  0.303  0.000   0.73  70.57   0.59      0  10846     80.6   0.00   0.00   1.25   4.00   4.00   4.00   4.00   4.00   4.00   4.00   2.43   0.00   0.00      0      0      0       0    2305
 1996 008   189   186   21.0      5   2.50   3208   4427   7948   7863  18775   4554  174.5  0.423  11140      7  0.000  0.000  0.349  0.000   0.71  71.35   0.59      0  11140     78.1   0.00   0.00   1.25   4.00   4.00   4.00   4.00   4.00   4.00   4.00   2.43   0.00   0.00      0      0      0       0    2344
 1996 009   190   187   21.0      5   2.42   3208   4427   8290   7828  19116   4554  182.0  0.434  11481      7  0.000  0.000  0.379  0.000   0.68  72.20   0.60      0  11481     75.5   0.00   0.00   1.25   4.00   4.00   4.00   3.99   3.99   3.98   3.98   2.42   0.00   0.00      0      0      0       0    2384
 1996 010   191   188   21.0      5   2.34   3208   4423   8631   7789  19454   4554  189.5  0.444  11823      7  0.000  0.000  0.418  0.000   0.65  73.01   0.61      0  11823     73.0   0.00   0.00   1.25   4.00   4.00   4.00   3.99   3.99   3.98   3.98   2.42   0.00   0.00      0      0      0       0    2423
 1996 011   192   189   21.0      5   2.26   3208   4188   8955   7750  19542   4554  196.6  0.458  12147      7  0.000  0.000  0.460  0.000   0.64  73.72   0.62      0  12147     70.3   0.00   0.00   1.25   4.00   4.00   4.00   3.99   3.99   3.98   3.98   2.42   0.00   0.00      0      0      0       0    2462
 1996 012   193   190   21.0      5   2.17   3208   4122   9260   7711  19781   4554  203.4  0.468  12452      7  0.000  0.000  0.496  0.000   0.62  74.37   0.63      0  12452     67.7   0.00   0.00   1.25   4.00   4.00   4.00   3.99   3.99   3.98   3.98   2.42   0.00   0.00      0      0      0       0    2501
 1996 013   194   191   21.0      5   2.09   3208   4023   9502   7673  19924   4554  208.7  0.477  12694      7  0.000  0.000  0.496  0.002   0.62  74.86   0.64      0  12694     65.2   0.00   0.00   1.25   4.00   4.00   4.00   3.99   3.99   3.98   3.98   2.42   0.00   0.00      0      0      0       0    2539
 1996 014   195   192   21.0      5   2.01   3208   4060   9701   7653  20159   4554  213.0  0.481  12892      7  0.000  0.000  0.502  0.000   0.61  75.24   0.64      0  12892     62.7   0.00   0.00   1.25   4.00   4.00   4.00   3.99   3.99   3.98   3.97   2.41   0.00   0.00      0      0      0       0    2577
 1996 015   196   193   21.0      5   1.94   3208   3994   9964   7615  20357   4554  218.8  0.489  13156      7  0.000  0.000  0.500  0.000   0.60  75.74   0.65      0  13156     60.4   0.00   0.00   1.25   4.00   4.00   4.00   3.99   3.99   3.98   3.97   2.41   0.00   0.00      0      0      0       0    2616
 1996 016   197   194   21.0      5   1.86   3208   3798  10285   7577  20482   4554  225.9  0.502  13477      7  0.000  0.000  0.531  0.000   0.59  76.32   0.66      0  13477     58.0   0.00   0.00   1.25   4.00   4.00   4.00   3.99   3.99   3.98   3.97   2.41   0.00   0.00      0      0      0       0    2654
 1996 017   198   195   21.0      5   1.79   3208   3685  10602   7539  20685   4554  232.8  0.513  13793      7  0.000  0.000  0.554  0.000   0.58  76.86   0.67      0  13793     55.7   0.00   0.00   1.25   4.00   4.00   4.00   3.99   3.99   3.98   3.97   2.41   0.00   0.00      0      0      0       0    2692
 1996 018   199   196   21.0      5   1.72   3208   3596  10919   7501  20914   4554  239.8  0.522  14111      7  0.000  0.000  0.551  0.000   0.57  77.38   0.67      0  14111     53.5   0.00   0.00   1.25   4.00   4.00   4.00   3.99   3.99   3.98   3.97   2.41   0.00   0.00      0      0      0       0    2729
 1996 019   200   197   21.0      5   1.65   3208   3533  11197   7463  21129   4554  245.9  0.530  14389      7  0.000  0.000  0.559  0.000   0.57  77.82   0.68      0  14389     51.4   0.00   0.00   1.25   4.00   4.00   4.00   3.99   3.99   3.98   3.97   2.41   0.00   0.00      0      0      0       0    2767
 1996 020   201   198   21.0      5   1.58   3208   3450  11480   7426  21330   4554  252.1  0.538  14672      7  0.000  0.000  0.568  0.000   0.56  78.25   0.69      0  14672     49.3   0.00   0.00   1.25   4.00   4.00   4.00   3.99   3.99   3.98   3.97   2.41   0.00   0.00      0      0      0       0    2804
 1996 021   202   199   21.0      5   1.52   3208   3308  11819   7389  21526   4554  259.5  0.549  15011      7  0.000  0.000  0.577  0.000   0.56  78.74   0.70      0  15011     47.3   0.00   0.00   1.25   4.00   4.00   4.00   3.99   3.99   3.98   3.97   2.41   0.00   0.00      0      0      0       0    2841
 1996 022   203   200   21.0      5   1.52   3208   3308  11819   7389  21526   4554  259.5  0.549  15011      7  0.000  0.000  0.577  0.000   0.56  78.74   0.70      0  15011     47.3   0.00   0.00   1.25   4.00   4.00   4.00   3.99   3.99   3.98   3.97   2.41   0.00   0.00      0      0      0       0    2841
 1996 023   204   201   21.0      5   1.52   3208   3308  11819   7389  21526   4554  259.5  0.549  15011      7  0.000  0.000  0.577  0.000   0.56  78.74   0.70      0  15011     47.3   0.00   0.00   1.25   4.00   4.00   4.00   3.99   3.99   3.98   3.97   2.41   0.00   0.00      0      0      0       0    2841
 1996 024   205   202   21.0      5   1.52   3208   3308  11819   7389  21526   4554  259.5  0.549  15011      7  0.000  0.000  0.577  0.000   0.56  78.74   0.70      0  15011     47.3   0.00   0.00   1.25   4.00   4.00   4.00   3.99   3.99   3.98   3.97   2.41   0.00   0.00      0      0      0       0    2841
 1996 025   206   203   21.0      5   1.52   3208   3308  11819   7389  21526   4554  259.5  0.549  15011      7  0.000  0.000  0.577  0.000   0.56  78.74   0.70      0  15011     47.3   0.00   0.00   1.25   4.00   4.00   4.00   3.99   3.99   3.98   3.97   2.41   0.00   0.00      0      0      0       0    2841
