*SOIL WATER DAILY OUTPUT FILE

*DSSAT Cropping System Model Ver. 4.0.2.000               Aug 01, 2016; 14:59:40

*RUN   1        : UYMZ                    
 MODEL          : MZCER040 - Maize           
 EXPERIMENT     : UYMZ0097 MZ    late to create DSS                             
 TREATMENT  1   : UYMZ                    

@YEAR DOY   DAS  SWXD   ROFC   DRNC   PREC  IR#C  IRRC  DTWT   SW1D   SW2D   SW3D   SW4D   SW5D   SW6D   SW7D   SW8D   SW9D   SW10
 1990 184     0   117      0      0      0     0     0   125  0.380  0.394  0.394  0.335  0.375  0.419  0.408  0.395  0.000  0.000
 1990 185     1   117      0      0      0     0     0   125  0.366  0.394  0.394  0.335  0.376  0.418  0.408  0.395  0.000  0.000
 1990 186     2   116      0      0      0     0     0   125  0.349  0.393  0.394  0.336  0.376  0.418  0.408  0.395  0.000  0.000
 1990 187     3   156      0      0      0     1    41   125  0.553  0.567  0.480  0.336  0.377  0.417  0.408  0.395  0.000  0.000
 1990 188     4   155      0      0      0     1    41   125  0.531  0.547  0.493  0.338  0.377  0.417  0.408  0.395  0.000  0.000
 1990 189     5   155      0      0      0     1    41   125  0.527  0.532  0.498  0.341  0.378  0.416  0.408  0.395  0.000  0.000
 1990 190     6   154      0      0      0     1    41   125  0.517  0.524  0.499  0.344  0.378  0.416  0.408  0.395  0.000  0.000
 1990 191     7   152      0      0      0     1    41   125  0.476  0.518  0.499  0.347  0.378  0.415  0.408  0.395  0.000  0.000
 1990 192     8   150      0      0      0     1    41   125  0.462  0.506  0.498  0.349  0.379  0.415  0.408  0.395  0.000  0.000
 1990 193     9   147      0      0      0     1    41   125  0.430  0.497  0.496  0.352  0.379  0.415  0.408  0.395  0.000  0.000
 1990 194    10   146      0      0      0     1    41   125  0.422  0.488  0.493  0.354  0.380  0.414  0.408  0.395  0.000  0.000
 1990 195    11   145      0      0      0     1    41   125  0.418  0.481  0.491  0.356  0.380  0.414  0.407  0.395  0.000  0.000
 1990 196    12   169      0      0     26     1    41   125  0.538  0.562  0.548  0.364  0.380  0.414  0.407  0.395  0.000  0.000
 1990 197    13   168      0      0     26     1    41   125  0.528  0.552  0.541  0.376  0.381  0.413  0.407  0.395  0.000  0.000
 1990 198    14   169      0      0     28     1    41   125  0.549  0.543  0.541  0.380  0.381  0.413  0.407  0.395  0.000  0.000
 1990 199    15   167      0      0     28     1    41   125  0.510  0.543  0.538  0.384  0.382  0.413  0.407  0.395  0.000  0.000
 1990 200    16   165      0      0     28     1    41   125  0.494  0.532  0.533  0.387  0.383  0.412  0.407  0.395  0.000  0.000
 1990 201    17   163      0      0     28     1    41   125  0.475  0.523  0.528  0.390  0.384  0.412  0.407  0.395  0.000  0.000
 1990 202    18   162      0      0     28     1    41   125  0.481  0.514  0.524  0.393  0.384  0.412  0.407  0.395  0.000  0.000
 1990 203    19   160      0      0     28     1    41   125  0.467  0.509  0.519  0.394  0.385  0.412  0.407  0.395  0.000  0.000
 1990 204    20   159      0      0     28     1    41   125  0.462  0.503  0.516  0.396  0.386  0.411  0.407  0.395  0.000  0.000
 1990 205    21   158      0      0     28     1    41   125  0.459  0.499  0.512  0.397  0.387  0.411  0.407  0.395  0.000  0.000
 1990 206    22   157      0      0     28     1    41   125  0.456  0.495  0.509  0.398  0.388  0.411  0.407  0.395  0.000  0.000
 1990 207    23   156      0      0     28     1    41   125  0.454  0.491  0.506  0.399  0.388  0.411  0.407  0.395  0.000  0.000
 1990 208    24   156      0      0     28     1    41   125  0.452  0.488  0.503  0.399  0.389  0.410  0.406  0.395  0.000  0.000
 1990 209    25   155      0      0     28     1    41   125  0.450  0.485  0.501  0.400  0.390  0.410  0.406  0.395  0.000  0.000
 1990 210    26   154      0      0     28     1    41   125  0.448  0.483  0.499  0.400  0.391  0.410  0.406  0.395  0.000  0.000
 1990 211    27   154      0      0     28     1    41   125  0.446  0.480  0.497  0.400  0.391  0.410  0.406  0.395  0.000  0.000
 1990 212    28   153      0      0     28     1    41   125  0.445  0.478  0.495  0.400  0.392  0.410  0.406  0.395  0.000  0.000
 1990 213    29   153      0      0     28     1    41   125  0.443  0.476  0.493  0.400  0.392  0.409  0.406  0.394  0.000  0.000
 1990 214    30   152      0      0     28     1    41   125  0.441  0.474  0.492  0.400  0.393  0.409  0.406  0.394  0.000  0.000
 1990 215    31   152      0      0     28     1    41   125  0.440  0.472  0.490  0.400  0.394  0.409  0.406  0.394  0.000  0.000
 1990 216    32   151      0      0     28     1    41   125  0.438  0.471  0.489  0.400  0.394  0.409  0.406  0.394  0.000  0.000
 1990 217    33   151      0      0     28     1    41   125  0.437  0.469  0.487  0.400  0.395  0.409  0.406  0.394  0.000  0.000
 1990 218    34   150      0      0     28     1    41   125  0.435  0.467  0.486  0.400  0.395  0.409  0.406  0.394  0.000  0.000
 1990 219    35   150      0      0     28     1    41   125  0.433  0.466  0.485  0.400  0.395  0.408  0.405  0.394  0.000  0.000
 1990 220    36   150      0      0     28     1    41   125  0.432  0.464  0.483  0.400  0.396  0.408  0.405  0.394  0.000  0.000
 1990 221    37   149      0      0     28     1    41   125  0.430  0.463  0.482  0.400  0.396  0.408  0.405  0.394  0.000  0.000
 1990 222    38   149      0      0     28     1    41   125  0.429  0.461  0.481  0.400  0.397  0.408  0.405  0.394  0.000  0.000
 1990 223    39   148      0      0     28     1    41   125  0.427  0.460  0.480  0.399  0.397  0.408  0.405  0.394  0.000  0.000
 1990 224    40   148      0      0     28     1    41   125  0.426  0.458  0.479  0.399  0.397  0.408  0.405  0.394  0.000  0.000
 1990 225    41   148      0      0     30     1    41   125  0.438  0.456  0.478  0.399  0.398  0.408  0.405  0.394  0.000  0.000
 1990 226    42   154      0      0     37     1    41   125  0.550  0.464  0.477  0.399  0.398  0.408  0.405  0.394  0.000  0.000
 1990 227    43   153      0      0     37     1    41   125  0.504  0.480  0.477  0.399  0.398  0.408  0.405  0.394  0.000  0.000
 1990 228    44   153      0      0     37     1    41   125  0.482  0.483  0.478  0.398  0.398  0.407  0.405  0.394  0.000  0.000
 1990 229    45   152      0      0     37     1    41   125  0.471  0.481  0.478  0.398  0.399  0.407  0.405  0.394  0.000  0.000
 1990 230    46   151      0      0     37     1    41   125  0.463  0.478  0.478  0.398  0.399  0.407  0.405  0.394  0.000  0.000
 1990 231    47   151      0      0     37     1    41   125  0.457  0.475  0.477  0.398  0.399  0.407  0.404  0.394  0.000  0.000
 1990 232    48   150      0      0     37     1    41   125  0.451  0.472  0.477  0.398  0.399  0.407  0.404  0.394  0.000  0.000
 1990 233    49   149      0      0     37     1    41   125  0.447  0.470  0.476  0.398  0.399  0.407  0.404  0.394  0.000  0.000
 1990 234    50   148      0      0     37     1    41   125  0.442  0.467  0.475  0.398  0.400  0.407  0.404  0.393  0.000  0.000
 1990 235    51   148      0      0     37     1    41   125  0.438  0.464  0.474  0.398  0.400  0.407  0.404  0.393  0.000  0.000
 1990 236    52   147      0      0     37     1    41   125  0.435  0.461  0.473  0.398  0.400  0.407  0.404  0.393  0.000  0.000
 1990 237    53   147      0      0     37     1    41   125  0.431  0.459  0.472  0.397  0.400  0.407  0.404  0.393  0.000  0.000
 1990 238    54   146      0      0     37     1    41   125  0.428  0.456  0.471  0.397  0.400  0.407  0.404  0.393  0.000  0.000
 1990 239    55   146      0      0     39     1    41   125  0.441  0.454  0.470  0.397  0.400  0.406  0.404  0.393  0.000  0.000
 1990 240    56   146      0      0     39     1    41   125  0.435  0.454  0.469  0.397  0.400  0.406  0.404  0.393  0.000  0.000
 1990 241    57   145      0      0     39     1    41   125  0.430  0.452  0.468  0.397  0.400  0.406  0.404  0.393  0.000  0.000
 1990 242    58   144      0      0     39     1    41   125  0.426  0.451  0.467  0.396  0.400  0.406  0.404  0.393  0.000  0.000
 1990 243    59   146      0      0     41     1    41   125  0.453  0.450  0.467  0.396  0.400  0.406  0.404  0.393  0.000  0.000
 1990 244    60   145      0      0     41     1    41   125  0.444  0.451  0.466  0.396  0.400  0.406  0.403  0.393  0.000  0.000
 1990 245    61   145      0      0     41     1    41   125  0.437  0.451  0.466  0.396  0.401  0.406  0.403  0.393  0.000  0.000
 1990 246    62   144      0      0     41     1    41   125  0.432  0.451  0.465  0.396  0.401  0.406  0.403  0.393  0.000  0.000
 1990 247    63   144      0      0     41     1    41   125  0.428  0.450  0.465  0.395  0.401  0.406  0.403  0.393  0.000  0.000
 1990 248    64   143      0      0     41     1    41   125  0.425  0.449  0.465  0.395  0.401  0.406  0.403  0.393  0.000  0.000
 1990 249    65   171      0      0     69     1    41   125  0.549  0.567  0.528  0.395  0.401  0.406  0.403  0.393  0.000  0.000
 1990 250    66   174      0      0     73     1    41   125  0.544  0.564  0.545  0.400  0.401  0.406  0.403  0.393  0.000  0.000
 1990 251    67   172      0      0     73     1    41   125  0.514  0.555  0.541  0.410  0.401  0.406  0.403  0.392  0.000  0.000
 1990 252    68   168      0      0     73     1    41   125  0.461  0.537  0.539  0.415  0.401  0.406  0.403  0.392  0.000  0.000
 1990 253    69   190      0      0     97     1    41   125  0.530  0.561  0.564  0.471  0.425  0.406  0.403  0.392  0.000  0.000
 1990 254    70   187      0      0     97     1    41   125  0.489  0.548  0.555  0.458  0.431  0.416  0.403  0.392  0.000  0.000
 1990 255    71   185      0      0     97     1    41   125  0.486  0.529  0.547  0.450  0.431  0.419  0.408  0.394  0.000  0.000
 1990 256    72   181      0      1     97     1    41   125  0.462  0.521  0.540  0.445  0.431  0.419  0.408  0.395  0.000  0.000
 1990 257    73   179      0      1     97     1    41   125  0.461  0.513  0.535  0.442  0.431  0.419  0.408  0.395  0.000  0.000
 1990 258    74   177      0      2     97     1    41   125  0.460  0.507  0.530  0.439  0.431  0.419  0.408  0.395  0.000  0.000
 1990 259    75   176      0      2     97     1    41   125  0.459  0.503  0.526  0.438  0.431  0.419  0.408  0.395  0.000  0.000
 1990 260    76   175      0      2     97     1    41   125  0.458  0.499  0.523  0.437  0.431  0.419  0.408  0.395  0.000  0.000
 1990 261    77   177      0      2    100     1    41   125  0.511  0.496  0.520  0.436  0.431  0.419  0.408  0.395  0.000  0.000
 1990 262    78   175      0      2    100     1    41   125  0.484  0.502  0.518  0.434  0.431  0.419  0.408  0.395  0.000  0.000
 1990 263    79   174      0      2    100     1    41   125  0.474  0.500  0.516  0.433  0.431  0.419  0.408  0.395  0.000  0.000
 1990 264    80   178      0      2    105     1    41   125  0.549  0.504  0.515  0.432  0.430  0.419  0.408  0.395  0.000  0.000
 1990 265    81   176      0      2    105     1    41   125  0.492  0.514  0.514  0.431  0.430  0.419  0.408  0.395  0.000  0.000
 1990 266    82   174      0      2    105     1    41   125  0.481  0.508  0.513  0.430  0.430  0.419  0.408  0.395  0.000  0.000
 1990 267    83   172      0      2    105     1    41   125  0.472  0.500  0.510  0.429  0.429  0.419  0.408  0.395  0.000  0.000
 1990 268    84   170      0      2    105     1    41   125  0.463  0.494  0.507  0.428  0.429  0.419  0.408  0.395  0.000  0.000
 1990 269    85   169      0      2    105     1    41   125  0.456  0.487  0.503  0.427  0.429  0.419  0.408  0.395  0.000  0.000
 1990 270    86   167      0      2    105     1    41   125  0.448  0.481  0.499  0.425  0.428  0.419  0.408  0.395  0.000  0.000
 1990 271    87   165      0      2    105     1    41   125  0.441  0.476  0.496  0.424  0.428  0.419  0.408  0.395  0.000  0.000
 1990 272    88   163      0      2    105     1    41   125  0.434  0.471  0.492  0.422  0.428  0.419  0.408  0.395  0.000  0.000
 1990 273    89   161      0      2    105     1    41   125  0.427  0.464  0.486  0.420  0.427  0.419  0.408  0.395  0.000  0.000
 1990 274    90   158      0      2    105     1    41   125  0.420  0.456  0.480  0.417  0.426  0.419  0.408  0.395  0.000  0.000
 1990 275    91   156      0      2    105     1    41   125  0.413  0.448  0.473  0.415  0.426  0.419  0.408  0.395  0.000  0.000
 1990 276    92   161      0      2    114     1    41   125  0.528  0.454  0.467  0.412  0.425  0.419  0.408  0.395  0.000  0.000
 1990 277    93   189      0      2    144     1    41   125  0.525  0.577  0.562  0.425  0.424  0.419  0.408  0.395  0.000  0.000
 1990 278    94   194      0      2    151     1    41   125  0.566  0.558  0.564  0.451  0.432  0.418  0.408  0.395  0.000  0.000
 1990 279    95   190      0      5    151     1    41   125  0.542  0.550  0.553  0.445  0.432  0.419  0.408  0.395  0.000  0.000
 1990 280    96   191      0      5    154     1    41   125  0.551  0.555  0.551  0.446  0.435  0.420  0.408  0.395  0.000  0.000
 1990 281    97   187      0      7    154     1    41   125  0.517  0.545  0.543  0.440  0.433  0.420  0.408  0.395  0.000  0.000
 1990 282    98   182      0      7    154     1    41   125  0.490  0.528  0.534  0.437  0.432  0.420  0.408  0.395  0.000  0.000
 1990 283    99   176      0      7    154     1    41   125  0.466  0.512  0.523  0.433  0.431  0.420  0.408  0.395  0.000  0.000
 1990 284   100   179      0      7    159     1    41   125  0.560  0.508  0.518  0.431  0.430  0.420  0.408  0.395  0.000  0.000
 1990 285   101   174      0      7    159     1    41   125  0.489  0.514  0.511  0.427  0.428  0.420  0.408  0.395  0.000  0.000
 1990 286   102   170      0      7    159     1    41   125  0.463  0.500  0.503  0.422  0.426  0.420  0.408  0.395  0.000  0.000
 1990 287   103   165      0      7    159     1    41   125  0.441  0.487  0.495  0.417  0.424  0.420  0.408  0.395  0.000  0.000
 1990 288   104   160      0      7    159     1    41   125  0.418  0.474  0.487  0.412  0.421  0.420  0.408  0.395  0.000  0.000
 1990 289   105   155      0      7    159     1    41   125  0.400  0.462  0.479  0.406  0.417  0.420  0.408  0.395  0.000  0.000
 1990 290   106   150      0      7    159     1    41   125  0.381  0.450  0.470  0.399  0.413  0.419  0.408  0.395  0.000  0.000
 1990 291   107   144      0      7    159     1    41   125  0.363  0.438  0.460  0.391  0.409  0.419  0.408  0.395  0.000  0.000
 1990 292   108   141      0      7    159     1    41   125  0.353  0.430  0.453  0.386  0.405  0.419  0.408  0.395  0.000  0.000
 1990 293   109   168      0      7    159     2    73   125  0.556  0.560  0.489  0.381  0.401  0.418  0.408  0.395  0.000  0.000
 1990 294   110   163      0      7    159     2    73   125  0.522  0.536  0.493  0.378  0.396  0.417  0.408  0.395  0.000  0.000
 1990 295   111   157      0      7    159     2    73   125  0.502  0.515  0.486  0.375  0.391  0.417  0.408  0.395  0.000  0.000
 1990 296   112   152      0      7    159     2    73   125  0.484  0.499  0.478  0.372  0.387  0.416  0.408  0.395  0.000  0.000
 1990 297   113   147      0      7    159     2    73   125  0.462  0.484  0.469  0.370  0.383  0.415  0.408  0.395  0.000  0.000
 1990 298   114   141      0      7    159     2    73   125  0.441  0.469  0.459  0.367  0.379  0.414  0.408  0.395  0.000  0.000
 1990 299   115   136      0      7    159     2    73   125  0.424  0.455  0.448  0.364  0.375  0.412  0.408  0.395  0.000  0.000
 1990 300   116   142      0      7    170     2    73   125  0.559  0.473  0.439  0.362  0.373  0.411  0.408  0.395  0.000  0.000
 1990 301   117   209     29      7    270     2    73   125  0.539  0.572  0.562  0.468  0.459  0.436  0.420  0.400  0.000  0.000
 1990 302   118   222     29     17    294     2    73   125  0.564  0.564  0.565  0.467  0.458  0.447  0.439  0.432  0.000  0.000
 1990 303   119   204     29     32    294     2    73   125  0.545  0.550  0.550  0.450  0.442  0.435  0.427  0.417  0.000  0.000
 1990 304   120   193     29     39    294     2    73   125  0.530  0.541  0.541  0.438  0.433  0.428  0.419  0.408  0.000  0.000
 1990 305   121   184     29     41    294     2    73   125  0.520  0.529  0.532  0.429  0.425  0.424  0.415  0.403  0.000  0.000
 1990 306   122   218     30     56    349     2    73   125  0.557  0.558  0.558  0.461  0.452  0.446  0.439  0.432  0.000  0.000
 1990 307   123   216     30     61    357     2    73   125  0.552  0.561  0.560  0.461  0.450  0.440  0.439  0.432  0.000  0.000
 1990 308   124   200     30     72    357     2    73   125  0.537  0.548  0.547  0.446  0.436  0.430  0.427  0.417  0.000  0.000
 1990 309   125   189     30     78    357     2    73   125  0.527  0.538  0.539  0.434  0.426  0.423  0.419  0.408  0.000  0.000
 1990 310   126   181     30     80    357     2    73   125  0.523  0.529  0.532  0.427  0.419  0.418  0.415  0.403  0.000  0.000
 1990 311   127   176     30     81    357     2    73   125  0.518  0.524  0.526  0.422  0.414  0.414  0.412  0.400  0.000  0.000
 1990 312   128   170     30     82    357     2    73   125  0.509  0.518  0.519  0.416  0.409  0.409  0.410  0.398  0.000  0.000
 1990 313   129   165     30     82    357     2    73   125  0.501  0.511  0.513  0.411  0.403  0.404  0.409  0.398  0.000  0.000
 1990 314   130   159     30     82    357     2    73   125  0.493  0.504  0.506  0.406  0.398  0.398  0.408  0.398  0.000  0.000
 1990 315   131   153     30     82    357     2    73   125  0.484  0.496  0.499  0.400  0.392  0.392  0.407  0.398  0.000  0.000
 1990 316   132   154     30     82    363     2    73   125  0.560  0.507  0.493  0.395  0.388  0.388  0.405  0.398  0.000  0.000
 1990 317   133   181     30     82    393     2    73   125  0.537  0.572  0.566  0.458  0.401  0.386  0.403  0.398  0.000  0.000
 1990 318   134   182     30     82    396     2    73   125  0.567  0.563  0.562  0.456  0.414  0.384  0.402  0.398  0.000  0.000
 1990 319   135   197     30     82    416     2    73   125  0.562  0.564  0.564  0.465  0.457  0.411  0.400  0.397  0.000  0.000
 1990 320   136   189     30     84    416     2    73   125  0.543  0.552  0.552  0.450  0.438  0.411  0.405  0.397  0.000  0.000
 1990 321   137   183     30     84    416     2    73   125  0.529  0.543  0.543  0.440  0.428  0.412  0.401  0.397  0.000  0.000
 1990 322   138   176     30     84    416     2    73   125  0.525  0.533  0.537  0.433  0.422  0.405  0.396  0.397  0.000  0.000
 1990 323   139   218     31     92    473     2    73   125  0.562  0.561  0.562  0.465  0.456  0.442  0.436  0.431  0.000  0.000
 1990 324   140   220     31    100    486     2    73   125  0.560  0.564  0.566  0.466  0.457  0.444  0.437  0.432  0.000  0.000
 1990 325   141   200     31    114    486     2    73   125  0.537  0.548  0.554  0.448  0.440  0.427  0.420  0.417  0.000  0.000
 1990 326   142   187     31    119    486     2    73   125  0.525  0.537  0.544  0.437  0.430  0.418  0.411  0.408  0.000  0.000
 1990 327   143   180     31    120    486     2    73   125  0.520  0.528  0.536  0.431  0.423  0.411  0.406  0.403  0.000  0.000
 1990 328   144   173     31    121    486     2    73   125  0.513  0.522  0.529  0.425  0.418  0.406  0.402  0.399  0.000  0.000
 1990 329   145   218     31    128    545     2    73   125  0.561  0.561  0.561  0.465  0.455  0.442  0.435  0.431  0.000  0.000
 1990 330   146   200     31    140    545     2    73   125  0.542  0.549  0.548  0.449  0.441  0.428  0.421  0.416  0.000  0.000
 1990 331   147   188     31    146    545     2    73   125  0.528  0.540  0.540  0.439  0.431  0.419  0.412  0.407  0.000  0.000
 1990 332   148   181     31    147    545     2    73   125  0.524  0.531  0.534  0.433  0.425  0.413  0.406  0.402  0.000  0.000
 1990 333   149   174     31    147    545     2    73   125  0.515  0.524  0.528  0.427  0.420  0.408  0.402  0.398  0.000  0.000
 1990 334   150   179     31    147    553     2    73   125  0.569  0.559  0.534  0.425  0.418  0.406  0.400  0.396  0.000  0.000
 1990 335   151   195     32    147    575     2    73   125  0.555  0.561  0.563  0.465  0.455  0.411  0.397  0.395  0.000  0.000
 1990 336   152   218     32    150    603     2    73   125  0.561  0.565  0.565  0.467  0.457  0.445  0.437  0.417  0.000  0.000
 1990 337   153   199     32    163    603     2    73   125  0.541  0.553  0.550  0.449  0.441  0.428  0.421  0.407  0.000  0.000
 1990 338   154   187     32    168    603     2    73   125  0.527  0.544  0.542  0.439  0.432  0.418  0.411  0.401  0.000  0.000
 1990 339   155   216     32    172    643     2    73   125  0.566  0.557  0.562  0.463  0.454  0.441  0.434  0.428  0.000  0.000
 1990 340   156   201     32    184    643     2    73   125  0.548  0.549  0.552  0.449  0.443  0.430  0.422  0.414  0.000  0.000
 1990 341   157   189     32    190    643     2    73   125  0.530  0.541  0.543  0.438  0.433  0.421  0.412  0.405  0.000  0.000
 1990 342   158   182     32    191    643     2    73   125  0.526  0.533  0.537  0.432  0.428  0.416  0.406  0.400  0.000  0.000
 1990 343   159   180     32    191    643     2    73   125  0.526  0.530  0.534  0.430  0.426  0.414  0.405  0.398  0.000  0.000
 1990 344   160   176     32    191    643     2    73   125  0.522  0.527  0.530  0.428  0.423  0.411  0.403  0.397  0.000  0.000
 1990 345   161   170     32    191    643     2    73   125  0.511  0.521  0.524  0.422  0.417  0.406  0.398  0.396  0.000  0.000
 1990 346   162   168     32    191    643     2    73   125  0.512  0.517  0.521  0.421  0.415  0.404  0.397  0.395  0.000  0.000
 1990 347   163   163     32    191    643     2    73   125  0.504  0.513  0.516  0.417  0.411  0.400  0.394  0.394  0.000  0.000
 1990 348   164   157     32    191    643     2    73   125  0.496  0.507  0.510  0.412  0.406  0.395  0.390  0.393  0.000  0.000
 1990 349   165   151     32    191    643     2    73   125  0.487  0.500  0.504  0.407  0.401  0.390  0.386  0.391  0.000  0.000
 1990 350   166   146     32    191    643     2    73   125  0.479  0.493  0.498  0.402  0.396  0.387  0.382  0.390  0.000  0.000
 1990 351   167   161     32    191    661     2    73   125  0.568  0.564  0.530  0.401  0.394  0.385  0.381  0.389  0.000  0.000
 1990 352   168   159     32    191    661     2    73   125  0.552  0.550  0.538  0.401  0.392  0.384  0.380  0.388  0.000  0.000
 1990 353   169   152     32    191    661     2    73   125  0.530  0.539  0.533  0.397  0.387  0.381  0.376  0.386  0.000  0.000
 1990 354   170   146     32    191    661     2    73   125  0.519  0.528  0.523  0.392  0.382  0.377  0.373  0.384  0.000  0.000
 1990 355   171   142     32    191    663     2    73   125  0.542  0.521  0.514  0.386  0.378  0.374  0.370  0.382  0.000  0.000
 1990 356   172   138     32    191    663     2    73   125  0.512  0.520  0.508  0.384  0.376  0.372  0.368  0.380  0.000  0.000
 1990 357   173   132     32    191    663     2    73   125  0.498  0.508  0.500  0.380  0.373  0.370  0.366  0.378  0.000  0.000
 1990 358   174   126     32    191    663     2    73   125  0.482  0.496  0.490  0.376  0.370  0.367  0.363  0.376  0.000  0.000
 1990 359   175   119     32    191    663     2    73   125  0.462  0.482  0.479  0.372  0.367  0.365  0.361  0.373  0.000  0.000
 1990 360   176   111     32    191    663     2    73   125  0.439  0.467  0.466  0.368  0.364  0.362  0.358  0.370  0.000  0.000
 1990 361   177   113     32    191    667     2    73   125  0.516  0.460  0.462  0.368  0.363  0.361  0.357  0.369  0.000  0.000
 1990 362   178   108     32    191    667     2    73   125  0.478  0.461  0.453  0.365  0.361  0.360  0.356  0.367  0.000  0.000
 1990 363   179   103     32    191    667     2    73   125  0.449  0.453  0.444  0.363  0.359  0.358  0.354  0.366  0.000  0.000
 1990 364   180    97     32    191    667     2    73   125  0.420  0.441  0.433  0.360  0.357  0.356  0.352  0.364  0.000  0.000
 1990 365   181   120     32    191    667     3   103   125  0.543  0.551  0.488  0.357  0.355  0.354  0.350  0.361  0.000  0.000
 1991 001   182   116     32    191    667     3   103   125  0.522  0.531  0.487  0.357  0.354  0.353  0.349  0.360  0.000  0.000
 1991 002   183   109     32    191    667     3   103   125  0.493  0.509  0.477  0.356  0.352  0.351  0.348  0.358  0.000  0.000
 1991 003   184   102     32    191    667     3   103   125  0.460  0.488  0.464  0.355  0.350  0.350  0.346  0.357  0.000  0.000
 1991 004   185    95     32    191    667     3   103   125  0.426  0.467  0.450  0.353  0.349  0.348  0.344  0.355  0.000  0.000
 1991 005   186    88     32    191    667     3   103   125  0.408  0.449  0.436  0.352  0.347  0.347  0.343  0.354  0.000  0.000
 1991 006   187   112     32    191    667     4   132   125  0.545  0.551  0.489  0.350  0.346  0.345  0.342  0.352  0.000  0.000
 1991 007   188   105     32    191    667     4   132   125  0.494  0.524  0.481  0.350  0.344  0.344  0.340  0.351  0.000  0.000
 1991 008   189   115     32    191    684     4   132   125  0.537  0.541  0.528  0.349  0.343  0.343  0.339  0.350  0.000  0.000
 1991 009   190   110     32    191    684     4   132   125  0.505  0.527  0.516  0.352  0.343  0.342  0.339  0.349  0.000  0.000
 1991 010   191   103     32    191    684     4   132   125  0.471  0.507  0.502  0.353  0.342  0.341  0.338  0.348  0.000  0.000
 1991 011   192    96     32    191    684     4   132   125  0.439  0.486  0.486  0.353  0.341  0.340  0.337  0.347  0.000  0.000
 1991 012   193    89     32    191    684     4   132   125  0.400  0.467  0.471  0.352  0.340  0.339  0.336  0.346  0.000  0.000
 1991 013   194    83     32    191    684     4   132   125  0.373  0.449  0.456  0.351  0.339  0.338  0.335  0.345  0.000  0.000
 1991 014   195    77     32    191    684     4   132   125  0.357  0.429  0.439  0.349  0.338  0.337  0.334  0.344  0.000  0.000

*DSSAT Cropping System Model Ver. 4.0.2.000               Aug 01, 2016; 14:59:40

*RUN   2        : UYMZ                    
 MODEL          : MZCER040 - Maize           
 EXPERIMENT     : UYMZ0097 MZ    late to create DSS                             
 TREATMENT  1   : UYMZ                    

@YEAR DOY   DAS  SWXD   ROFC   DRNC   PREC  IR#C  IRRC  DTWT   SW1D   SW2D   SW3D   SW4D   SW5D   SW6D   SW7D   SW8D   SW9D   SW10
 1991 184     0   117      0      0      0     0     0   125  0.375  0.394  0.394  0.335  0.375  0.419  0.408  0.395  0.000  0.000
 1991 185     1   116      0      0      0     0     0   125  0.351  0.393  0.394  0.335  0.376  0.418  0.408  0.395  0.000  0.000
 1991 186     2   115      0      0      0     0     0   125  0.333  0.392  0.394  0.336  0.376  0.418  0.408  0.395  0.000  0.000
 1991 187     3   156      0      0      0     1    42   125  0.558  0.566  0.479  0.336  0.377  0.417  0.408  0.395  0.000  0.000
 1991 188     4   155      0      0      0     1    42   125  0.526  0.547  0.493  0.338  0.377  0.417  0.408  0.395  0.000  0.000
 1991 189     5   154      0      0      0     1    42   125  0.522  0.530  0.497  0.341  0.378  0.416  0.408  0.395  0.000  0.000
 1991 190     6   192      0      0     39     1    42   125  0.560  0.560  0.569  0.470  0.397  0.416  0.408  0.395  0.000  0.000
 1991 191     7   191      0      0     39     1    42   125  0.539  0.553  0.558  0.456  0.430  0.416  0.408  0.395  0.000  0.000
 1991 192     8   188      0      1     39     1    42   125  0.511  0.547  0.552  0.449  0.431  0.419  0.408  0.395  0.000  0.000
 1991 193     9   186      0      3     39     1    42   125  0.514  0.534  0.546  0.444  0.431  0.419  0.408  0.395  0.000  0.000
 1991 194    10   183      0      3     39     1    42   125  0.495  0.531  0.542  0.442  0.431  0.419  0.408  0.395  0.000  0.000
 1991 195    11   182      0      4     39     1    42   125  0.493  0.525  0.538  0.440  0.431  0.419  0.408  0.395  0.000  0.000
 1991 196    12   180      0      4     39     1    42   125  0.481  0.521  0.535  0.439  0.431  0.419  0.408  0.395  0.000  0.000
 1991 197    13   179      0      4     39     1    42   125  0.467  0.515  0.532  0.439  0.431  0.419  0.408  0.395  0.000  0.000
 1991 198    14   195      0      4     56     1    42   125  0.569  0.564  0.563  0.447  0.435  0.420  0.408  0.395  0.000  0.000
 1991 199    15   208      0      4     69     1    42   125  0.553  0.568  0.568  0.470  0.460  0.430  0.415  0.398  0.000  0.000
 1991 200    16   198      0     12     69     1    42   125  0.526  0.557  0.557  0.457  0.449  0.425  0.412  0.397  0.000  0.000
 1991 201    17   211      0     13     84     1    42   125  0.566  0.561  0.568  0.470  0.460  0.435  0.421  0.402  0.000  0.000
 1991 202    18   209      0     14     84     1    42   125  0.547  0.557  0.562  0.465  0.459  0.435  0.426  0.407  0.000  0.000
 1991 203    19   198      0     24     84     1    42   125  0.505  0.551  0.554  0.454  0.448  0.428  0.419  0.402  0.000  0.000
 1991 204    20   190      0     29     84     1    42   125  0.489  0.534  0.548  0.448  0.441  0.425  0.415  0.399  0.000  0.000
 1991 205    21   186      0     32     84     1    42   125  0.486  0.525  0.542  0.444  0.437  0.422  0.412  0.398  0.000  0.000
 1991 206    22   182      0     34     84     1    42   125  0.456  0.521  0.538  0.441  0.435  0.421  0.410  0.398  0.000  0.000
 1991 207    23   180      0     34     84     1    42   125  0.463  0.513  0.534  0.439  0.433  0.421  0.410  0.398  0.000  0.000
 1991 208    24   179      0     34     84     1    42   125  0.462  0.508  0.530  0.438  0.433  0.421  0.410  0.398  0.000  0.000
 1991 209    25   178      0     34     84     1    42   125  0.462  0.505  0.527  0.437  0.433  0.421  0.410  0.398  0.000  0.000
 1991 210    26   223     28     63    188     1    42   125  0.564  0.572  0.566  0.469  0.460  0.447  0.439  0.432  0.000  0.000
 1991 211    27   207     28     78    188     1    42   125  0.524  0.560  0.556  0.456  0.449  0.436  0.427  0.417  0.000  0.000
 1991 212    28   196     28     87    188     1    42   125  0.492  0.545  0.551  0.449  0.442  0.429  0.419  0.408  0.000  0.000
 1991 213    29   190     28     92    188     1    42   125  0.501  0.531  0.544  0.445  0.437  0.425  0.415  0.403  0.000  0.000
 1991 214    30   185     28     94    188     1    42   125  0.473  0.526  0.541  0.442  0.435  0.423  0.412  0.400  0.000  0.000
 1991 215    31   182     28     96    188     1    42   125  0.468  0.519  0.537  0.440  0.433  0.421  0.410  0.398  0.000  0.000
 1991 216    32   181     28     96    188     1    42   125  0.478  0.513  0.533  0.439  0.433  0.421  0.410  0.398  0.000  0.000
 1991 217    33   180     28     96    188     1    42   125  0.473  0.510  0.530  0.438  0.433  0.421  0.410  0.398  0.000  0.000
 1991 218    34   179     28     96    188     1    42   125  0.472  0.508  0.528  0.437  0.433  0.421  0.410  0.398  0.000  0.000
 1991 219    35   178     28     96    188     1    42   125  0.471  0.505  0.525  0.436  0.433  0.421  0.410  0.398  0.000  0.000
 1991 220    36   177     28     96    188     1    42   125  0.470  0.503  0.523  0.435  0.433  0.421  0.410  0.398  0.000  0.000
 1991 221    37   220     28     98    234     1    42   125  0.564  0.566  0.566  0.469  0.460  0.447  0.439  0.417  0.000  0.000
 1991 222    38   216     28    101    235     1    42   125  0.537  0.561  0.561  0.464  0.459  0.442  0.439  0.424  0.000  0.000
 1991 223    39   202     28    113    235     1    42   125  0.494  0.551  0.554  0.454  0.448  0.433  0.427  0.412  0.000  0.000
 1991 224    40   193     28    121    235     1    42   125  0.495  0.532  0.547  0.447  0.441  0.427  0.419  0.405  0.000  0.000
 1991 225    41   187     28    125    235     1    42   125  0.483  0.525  0.542  0.444  0.437  0.424  0.415  0.401  0.000  0.000
 1991 226    42   183     28    127    235     1    42   125  0.460  0.520  0.537  0.441  0.435  0.422  0.412  0.399  0.000  0.000
 1991 227    43   180     28    128    235     1    42   125  0.461  0.513  0.534  0.439  0.433  0.422  0.410  0.397  0.000  0.000
 1991 228    44   179     28    128    235     1    42   125  0.462  0.508  0.530  0.438  0.433  0.422  0.410  0.397  0.000  0.000
 1991 229    45   178     28    128    235     1    42   125  0.462  0.504  0.527  0.437  0.433  0.422  0.410  0.397  0.000  0.000
 1991 230    46   177     28    128    235     1    42   125  0.462  0.501  0.525  0.436  0.433  0.422  0.410  0.397  0.000  0.000
 1991 231    47   177     28    128    235     1    42   125  0.461  0.499  0.522  0.435  0.433  0.422  0.410  0.397  0.000  0.000
 1991 232    48   176     28    128    235     1    42   125  0.461  0.496  0.520  0.434  0.433  0.422  0.410  0.397  0.000  0.000
 1991 233    49   175     28    128    235     1    42   125  0.460  0.494  0.518  0.433  0.432  0.422  0.410  0.397  0.000  0.000
 1991 234    50   203     28    128    266     1    42   125  0.527  0.566  0.566  0.469  0.454  0.425  0.414  0.399  0.000  0.000
 1991 235    51   202     28    129    267     1    42   125  0.531  0.549  0.560  0.464  0.455  0.428  0.417  0.401  0.000  0.000
 1991 236    52   194     28    135    267     1    42   125  0.522  0.541  0.553  0.453  0.446  0.424  0.414  0.399  0.000  0.000
 1991 237    53   218     28    137    294     1    42   125  0.552  0.562  0.566  0.470  0.460  0.447  0.438  0.410  0.000  0.000
 1991 238    54   215     28    140    295     1    42   125  0.543  0.557  0.560  0.464  0.459  0.442  0.439  0.420  0.000  0.000
 1991 239    55   200     28    151    295     1    42   125  0.480  0.550  0.553  0.454  0.448  0.433  0.427  0.410  0.000  0.000
 1991 240    56   192     28    158    295     1    42   125  0.499  0.529  0.546  0.448  0.441  0.427  0.419  0.404  0.000  0.000
 1991 241    57   187     28    162    295     1    42   125  0.484  0.524  0.540  0.444  0.437  0.424  0.415  0.400  0.000  0.000
 1991 242    58   185     28    163    296     1    42   125  0.495  0.518  0.536  0.441  0.436  0.423  0.415  0.401  0.000  0.000
 1991 243    59   182     28    165    296     1    42   125  0.481  0.516  0.533  0.440  0.434  0.421  0.412  0.399  0.000  0.000
 1991 244    60   182     28    165    298     1    42   125  0.507  0.511  0.529  0.439  0.433  0.422  0.410  0.398  0.000  0.000
 1991 245    61   188     28    165    306     1    42   125  0.550  0.554  0.532  0.438  0.433  0.422  0.410  0.397  0.000  0.000
 1991 246    62   191     28    165    309     1    42   125  0.547  0.561  0.544  0.438  0.433  0.422  0.410  0.397  0.000  0.000
 1991 247    63   186     28    166    309     1    42   125  0.481  0.551  0.542  0.438  0.433  0.422  0.410  0.397  0.000  0.000
 1991 248    64   184     28    166    311     1    42   125  0.483  0.528  0.540  0.438  0.433  0.422  0.410  0.397  0.000  0.000
 1991 249    65   188     28    166    316     1    42   125  0.565  0.535  0.537  0.438  0.433  0.422  0.410  0.397  0.000  0.000
 1991 250    66   185     28    166    316     1    42   125  0.500  0.540  0.535  0.437  0.433  0.422  0.410  0.397  0.000  0.000
 1991 251    67   182     28    166    316     1    42   125  0.479  0.525  0.532  0.437  0.433  0.422  0.410  0.397  0.000  0.000
 1991 252    68   179     28    166    316     1    42   125  0.453  0.514  0.528  0.436  0.433  0.422  0.410  0.397  0.000  0.000
 1991 253    69   176     28    166    316     1    42   125  0.440  0.503  0.523  0.435  0.432  0.422  0.410  0.397  0.000  0.000
 1991 254    70   173     28    166    316     1    42   125  0.433  0.493  0.517  0.434  0.432  0.422  0.410  0.397  0.000  0.000
 1991 255    71   171     28    166    316     1    42   125  0.427  0.484  0.511  0.432  0.432  0.422  0.410  0.397  0.000  0.000
 1991 256    72   170     28    166    319     1    42   125  0.449  0.477  0.505  0.430  0.432  0.422  0.410  0.397  0.000  0.000
 1991 257    73   169     28    166    319     1    42   125  0.436  0.475  0.502  0.429  0.431  0.422  0.410  0.397  0.000  0.000
 1991 258    74   167     28    166    319     1    42   125  0.429  0.472  0.500  0.428  0.431  0.422  0.410  0.397  0.000  0.000
 1991 259    75   174     28    166    326     1    42   125  0.558  0.477  0.497  0.426  0.430  0.422  0.410  0.397  0.000  0.000
 1991 260    76   187     28    166    341     1    42   125  0.522  0.582  0.530  0.425  0.430  0.422  0.410  0.397  0.000  0.000
 1991 261    77   183     28    166    341     1    42   125  0.490  0.548  0.537  0.425  0.429  0.422  0.410  0.397  0.000  0.000
 1991 262    78   180     28    166    341     1    42   125  0.484  0.524  0.532  0.426  0.429  0.422  0.410  0.397  0.000  0.000
 1991 263    79   178     28    166    341     1    42   125  0.481  0.514  0.526  0.426  0.429  0.422  0.410  0.397  0.000  0.000
 1991 264    80   177     28    166    341     1    42   125  0.487  0.508  0.522  0.426  0.428  0.422  0.410  0.397  0.000  0.000
 1991 265    81   172     28    166    341     1    42   125  0.449  0.500  0.514  0.424  0.428  0.422  0.410  0.397  0.000  0.000
 1991 266    82   169     28    166    341     1    42   125  0.425  0.489  0.507  0.423  0.427  0.422  0.410  0.397  0.000  0.000
 1991 267    83   166     28    166    341     1    42   125  0.414  0.478  0.500  0.421  0.427  0.422  0.410  0.397  0.000  0.000
 1991 268    84   162     28    166    341     1    42   125  0.405  0.468  0.492  0.419  0.426  0.422  0.410  0.397  0.000  0.000
 1991 269    85   167     28    166    350     1    42   125  0.532  0.471  0.484  0.416  0.425  0.422  0.410  0.397  0.000  0.000
 1991 270    86   165     28    166    350     1    42   125  0.486  0.479  0.481  0.414  0.424  0.421  0.410  0.397  0.000  0.000
 1991 271    87   161     28    166    350     1    42   125  0.442  0.475  0.476  0.411  0.423  0.421  0.410  0.397  0.000  0.000
 1991 272    88   157     28    166    350     1    42   125  0.408  0.465  0.471  0.408  0.422  0.421  0.410  0.397  0.000  0.000
 1991 273    89   153     28    166    350     1    42   125  0.390  0.455  0.465  0.404  0.420  0.421  0.410  0.397  0.000  0.000
 1991 274    90   150     28    166    350     1    42   125  0.377  0.445  0.459  0.400  0.419  0.421  0.410  0.397  0.000  0.000
 1991 275    91   147     28    166    350     1    42   125  0.367  0.436  0.453  0.397  0.417  0.421  0.410  0.397  0.000  0.000
 1991 276    92   178     28    166    354     2    72   125  0.551  0.562  0.522  0.394  0.415  0.421  0.410  0.397  0.000  0.000
 1991 277    93   174     28    166    354     2    72   125  0.505  0.543  0.523  0.393  0.413  0.421  0.410  0.397  0.000  0.000
 1991 278    94   172     28    166    354     2    72   125  0.523  0.526  0.520  0.394  0.413  0.420  0.410  0.397  0.000  0.000
 1991 279    95   170     28    166    354     2    72   125  0.504  0.521  0.516  0.394  0.411  0.420  0.410  0.397  0.000  0.000
 1991 280    96   166     28    166    354     2    72   125  0.479  0.510  0.509  0.392  0.410  0.420  0.410  0.397  0.000  0.000
 1991 281    97   163     28    166    354     2    72   125  0.467  0.500  0.503  0.391  0.408  0.420  0.410  0.397  0.000  0.000
 1991 282    98   158     28    166    354     2    72   125  0.431  0.490  0.496  0.388  0.406  0.419  0.410  0.397  0.000  0.000
 1991 283    99   154     28    166    354     2    72   125  0.412  0.477  0.488  0.385  0.403  0.419  0.410  0.397  0.000  0.000
 1991 284   100   150     28    166    354     2    72   125  0.401  0.466  0.480  0.382  0.400  0.419  0.410  0.397  0.000  0.000
 1991 285   101   147     28    166    355     2    72   125  0.392  0.456  0.473  0.380  0.397  0.419  0.410  0.397  0.000  0.000
 1991 286   102   162     28    166    373     2    72   125  0.563  0.538  0.469  0.379  0.395  0.418  0.410  0.397  0.000  0.000
 1991 287   103   181     28    166    394     2    72   125  0.541  0.556  0.570  0.398  0.394  0.418  0.410  0.397  0.000  0.000
 1991 288   104   178     28    166    394     2    72   125  0.523  0.547  0.552  0.413  0.393  0.418  0.410  0.397  0.000  0.000
 1991 289   105   177     28    166    394     2    72   125  0.529  0.536  0.543  0.418  0.393  0.417  0.410  0.397  0.000  0.000
 1991 290   106   175     28    166    394     2    72   125  0.522  0.533  0.537  0.416  0.393  0.417  0.410  0.397  0.000  0.000
 1991 291   107   170     28    166    394     2    72   125  0.494  0.523  0.527  0.410  0.391  0.416  0.410  0.397  0.000  0.000
 1991 292   108   164     28    166    394     2    72   125  0.475  0.510  0.517  0.403  0.388  0.416  0.410  0.397  0.000  0.000
 1991 293   109   159     28    166    394     2    72   125  0.465  0.497  0.507  0.397  0.385  0.415  0.410  0.397  0.000  0.000
 1991 294   110   169     28    166    409     2    72   125  0.547  0.556  0.515  0.390  0.382  0.414  0.410  0.397  0.000  0.000
 1991 295   111   222     31    181    482     2    72   125  0.559  0.560  0.567  0.470  0.460  0.447  0.439  0.432  0.000  0.000
 1991 296   112   204     31    195    482     2    72   125  0.534  0.548  0.553  0.453  0.445  0.435  0.427  0.417  0.000  0.000
 1991 297   113   193     31    202    482     2    72   125  0.522  0.538  0.543  0.442  0.435  0.428  0.419  0.408  0.000  0.000
 1991 298   114   188     31    206    482     2    72   125  0.523  0.531  0.539  0.437  0.430  0.424  0.415  0.403  0.000  0.000
 1991 299   115   182     31    207    482     2    72   125  0.509  0.525  0.532  0.431  0.425  0.421  0.412  0.400  0.000  0.000
 1991 300   116   177     31    208    482     2    72   125  0.500  0.517  0.525  0.425  0.420  0.420  0.410  0.398  0.000  0.000
 1991 301   117   172     31    208    482     2    72   125  0.490  0.509  0.517  0.420  0.414  0.418  0.410  0.398  0.000  0.000
 1991 302   118   170     31    208    482     2    72   125  0.493  0.505  0.514  0.418  0.412  0.417  0.410  0.398  0.000  0.000
 1991 303   119   166     31    208    482     2    72   125  0.480  0.498  0.507  0.412  0.407  0.415  0.410  0.398  0.000  0.000
 1991 304   120   160     31    208    482     2    72   125  0.469  0.490  0.499  0.405  0.401  0.412  0.410  0.398  0.000  0.000
 1991 305   121   155     31    208    482     2    72   125  0.459  0.482  0.492  0.400  0.396  0.408  0.410  0.398  0.000  0.000
 1991 306   122   149     31    208    482     2    72   125  0.447  0.474  0.485  0.394  0.390  0.403  0.410  0.398  0.000  0.000
 1991 307   123   144     31    208    482     2    72   125  0.436  0.465  0.477  0.388  0.385  0.398  0.410  0.398  0.000  0.000
 1991 308   124   138     31    208    482     2    72   125  0.424  0.457  0.469  0.382  0.381  0.391  0.409  0.398  0.000  0.000
 1991 309   125   154     31    208    505     2    72   125  0.558  0.558  0.488  0.377  0.377  0.385  0.409  0.398  0.000  0.000
 1991 310   126   168     31    208    521     2    72   125  0.562  0.556  0.570  0.395  0.376  0.384  0.409  0.398  0.000  0.000
 1991 311   127   167     31    208    522     2    72   125  0.559  0.552  0.556  0.409  0.376  0.382  0.408  0.398  0.000  0.000
 1991 312   128   165     31    208    522     2    72   125  0.547  0.546  0.544  0.418  0.375  0.381  0.408  0.398  0.000  0.000
 1991 313   129   159     31    208    522     2    72   125  0.528  0.537  0.535  0.411  0.373  0.377  0.407  0.398  0.000  0.000
 1991 314   130   166     31    208    531     2    72   125  0.568  0.561  0.549  0.417  0.372  0.375  0.406  0.398  0.000  0.000
 1991 315   131   162     31    208    531     2    72   125  0.546  0.550  0.540  0.423  0.372  0.373  0.405  0.398  0.000  0.000
 1991 316   132   160     31    208    531     2    72   125  0.537  0.544  0.538  0.421  0.372  0.372  0.404  0.398  0.000  0.000
 1991 317   133   154     31    208    531     2    72   125  0.524  0.534  0.529  0.412  0.370  0.370  0.401  0.398  0.000  0.000
 1991 318   134   149     31    208    531     2    72   125  0.515  0.522  0.521  0.405  0.369  0.368  0.397  0.397  0.000  0.000
 1991 319   135   143     31    208    531     2    72   125  0.502  0.512  0.511  0.398  0.367  0.366  0.391  0.397  0.000  0.000
 1991 320   136   137     31    208    531     2    72   125  0.491  0.502  0.502  0.391  0.366  0.365  0.384  0.397  0.000  0.000
 1991 321   137   131     31    208    531     2    72   125  0.479  0.492  0.493  0.384  0.364  0.363  0.377  0.396  0.000  0.000
 1991 322   138   133     31    208    538     2    72   125  0.559  0.510  0.485  0.380  0.363  0.362  0.373  0.396  0.000  0.000
 1991 323   139   129     31    208    538     2    72   125  0.518  0.513  0.481  0.377  0.362  0.360  0.370  0.395  0.000  0.000
 1991 324   140   126     31    208    538     2    72   125  0.503  0.504  0.477  0.375  0.361  0.359  0.368  0.394  0.000  0.000
 1991 325   141   119     31    208    538     2    72   125  0.481  0.489  0.466  0.370  0.359  0.357  0.363  0.394  0.000  0.000
 1991 326   142   112     31    208    538     2    72   125  0.462  0.473  0.454  0.366  0.357  0.355  0.359  0.393  0.000  0.000
 1991 327   143   134     31    208    563     2    72   125  0.559  0.559  0.516  0.364  0.356  0.354  0.358  0.392  0.000  0.000
 1991 328   144   152     31    208    584     2    72   125  0.562  0.559  0.565  0.440  0.355  0.354  0.358  0.392  0.000  0.000
 1991 329   145   148     31    208    584     2    72   125  0.539  0.544  0.548  0.430  0.373  0.353  0.357  0.391  0.000  0.000
 1991 330   146   143     31    208    584     2    72   125  0.528  0.536  0.537  0.424  0.371  0.352  0.355  0.390  0.000  0.000
 1991 331   147   137     31    208    584     2    72   125  0.515  0.524  0.526  0.414  0.369  0.351  0.354  0.389  0.000  0.000
 1991 332   148   143     31    208    596     2    72   125  0.554  0.556  0.543  0.412  0.367  0.350  0.352  0.389  0.000  0.000
 1991 333   149   137     31    208    596     2    72   125  0.528  0.539  0.530  0.408  0.365  0.349  0.351  0.388  0.000  0.000
 1991 334   150   132     31    208    596     2    72   125  0.522  0.525  0.521  0.401  0.364  0.348  0.350  0.387  0.000  0.000
 1991 335   151   125     31    208    596     2    72   125  0.503  0.513  0.509  0.391  0.362  0.347  0.349  0.385  0.000  0.000
 1991 336   152   119     31    208    596     2    72   125  0.488  0.500  0.498  0.382  0.360  0.346  0.347  0.381  0.000  0.000
 1991 337   153   116     31    208    596     2    72   125  0.486  0.493  0.493  0.381  0.360  0.346  0.347  0.379  0.000  0.000
 1991 338   154   110     31    208    596     2    72   125  0.467  0.481  0.480  0.375  0.358  0.345  0.346  0.375  0.000  0.000
 1991 339   155   104     31    208    596     2    72   125  0.450  0.468  0.469  0.371  0.356  0.344  0.345  0.369  0.000  0.000
 1991 340   156    96     31    208    596     2    72   125  0.429  0.453  0.455  0.366  0.354  0.343  0.343  0.362  0.000  0.000
 1991 341   157    94     31    208    596     2    72   125  0.425  0.446  0.449  0.365  0.354  0.342  0.343  0.360  0.000  0.000
 1991 342   158    91     31    208    599     2    72   125  0.465  0.434  0.439  0.362  0.352  0.342  0.342  0.356  0.000  0.000
 1991 343   159    95     31    208    605     2    72   125  0.555  0.442  0.434  0.361  0.352  0.341  0.342  0.354  0.000  0.000
 1991 344   160    94     31    208    607     2    72   125  0.524  0.464  0.429  0.359  0.351  0.341  0.341  0.352  0.000  0.000
 1991 345   161    90     31    208    607     2    72   125  0.485  0.462  0.424  0.357  0.350  0.340  0.340  0.349  0.000  0.000
 1991 346   162    86     31    208    607     2    72   125  0.465  0.454  0.421  0.355  0.349  0.340  0.339  0.347  0.000  0.000
 1991 347   163    80     31    208    607     2    72   125  0.432  0.435  0.413  0.352  0.347  0.338  0.337  0.343  0.000  0.000
 1991 348   164   108     31    208    607     3   105   125  0.553  0.557  0.492  0.350  0.345  0.338  0.336  0.340  0.000  0.000
 1991 349   165   104     31    208    607     3   105   125  0.533  0.533  0.493  0.351  0.344  0.337  0.336  0.339  0.000  0.000
 1991 350   166   103     31    208    612     3   105   125  0.542  0.536  0.487  0.351  0.343  0.336  0.334  0.336  0.000  0.000
 1991 351   167    97     31    208    612     3   105   125  0.510  0.515  0.476  0.350  0.342  0.335  0.333  0.334  0.000  0.000
 1991 352   168    90     31    208    612     3   105   125  0.484  0.493  0.462  0.349  0.341  0.335  0.332  0.331  0.000  0.000
 1991 353   169   113     31    208    639     3   105   125  0.551  0.552  0.547  0.359  0.340  0.334  0.331  0.330  0.000  0.000
 1991 354   170   106     31    208    639     3   105   125  0.517  0.532  0.524  0.366  0.339  0.333  0.330  0.328  0.000  0.000
 1991 355   171   100     31    208    639     3   105   125  0.505  0.514  0.509  0.365  0.338  0.333  0.329  0.326  0.000  0.000
 1991 356   172    99     31    208    641     3   105   125  0.530  0.505  0.502  0.365  0.338  0.332  0.329  0.326  0.000  0.000
 1991 357   173    93     31    208    641     3   105   125  0.494  0.495  0.485  0.363  0.338  0.331  0.328  0.324  0.000  0.000
 1991 358   174   107     31    208    662     3   105   125  0.540  0.552  0.531  0.362  0.337  0.331  0.327  0.323  0.000  0.000
 1991 359   175   110     31    208    667     3   105   125  0.561  0.560  0.539  0.365  0.337  0.331  0.327  0.322  0.000  0.000
 1991 360   176   104     31    208    667     3   105   125  0.526  0.538  0.525  0.369  0.336  0.330  0.326  0.321  0.000  0.000
 1991 361   177    97     31    208    667     3   105   125  0.504  0.517  0.508  0.366  0.336  0.329  0.326  0.320  0.000  0.000
 1991 362   178    90     31    208    667     3   105   125  0.479  0.497  0.491  0.364  0.335  0.329  0.325  0.319  0.000  0.000
 1991 363   179    83     31    208    667     3   105   125  0.451  0.477  0.474  0.361  0.334  0.328  0.324  0.318  0.000  0.000
 1991 364   180    78     31    208    667     3   105   125  0.428  0.460  0.459  0.358  0.334  0.328  0.323  0.317  0.000  0.000
 1991 365   181    77     31    208    672     3   105   125  0.516  0.444  0.445  0.356  0.333  0.327  0.323  0.316  0.000  0.000
 1992 001   182   109     31    208    706     3   105   125  0.538  0.572  0.555  0.367  0.333  0.327  0.322  0.316  0.000  0.000
 1992 002   183   106     31    208    706     3   105   125  0.531  0.552  0.543  0.377  0.333  0.327  0.322  0.315  0.000  0.000
 1992 003   184   102     31    208    706     3   105   125  0.519  0.535  0.531  0.379  0.333  0.326  0.322  0.315  0.000  0.000
 1992 004   185    95     31    208    706     3   105   125  0.494  0.516  0.514  0.374  0.333  0.326  0.321  0.314  0.000  0.000
 1992 005   186    88     31    208    706     3   105   125  0.464  0.496  0.496  0.370  0.333  0.325  0.321  0.313  0.000  0.000
 1992 006   187    84     31    208    706     3   105   125  0.452  0.483  0.486  0.368  0.333  0.325  0.320  0.313  0.000  0.000
 1992 007   188    77     31    208    706     3   105   125  0.418  0.465  0.470  0.364  0.333  0.325  0.320  0.312  0.000  0.000
 1992 008   189    72     31    208    706     3   105   125  0.405  0.447  0.455  0.361  0.332  0.324  0.319  0.311  0.000  0.000
 1992 009   190    65     31    208    706     3   105   125  0.375  0.428  0.437  0.357  0.331  0.324  0.318  0.310  0.000  0.000
 1992 010   191    90     31    208    706     4   137   125  0.537  0.553  0.476  0.353  0.331  0.323  0.318  0.309  0.000  0.000
 1992 011   192    83     31    208    706     4   137   125  0.490  0.521  0.468  0.352  0.330  0.322  0.317  0.309  0.000  0.000
 1992 012   193    75     31    208    706     4   137   125  0.455  0.493  0.455  0.350  0.330  0.322  0.317  0.308  0.000  0.000
 1992 013   194    70     31    208    706     4   137   125  0.431  0.472  0.444  0.349  0.329  0.322  0.316  0.308  0.000  0.000
 1992 014   195    66     31    208    706     4   137   125  0.412  0.458  0.437  0.348  0.329  0.321  0.316  0.307  0.000  0.000
 1992 015   196    60     31    208    706     4   137   125  0.379  0.439  0.424  0.347  0.329  0.321  0.315  0.307  0.000  0.000
 1992 016   197    86     31    208    706     5   170   125  0.532  0.544  0.484  0.345  0.328  0.321  0.315  0.306  0.000  0.000
 1992 017   198    79     31    208    706     5   170   125  0.483  0.516  0.474  0.345  0.327  0.320  0.314  0.306  0.000  0.000
 1992 018   199    72     31    208    706     5   170   125  0.446  0.490  0.461  0.344  0.327  0.320  0.314  0.305  0.000  0.000

*DSSAT Cropping System Model Ver. 4.0.2.000               Aug 01, 2016; 14:59:40

*RUN   3        : UYMZ                    
 MODEL          : MZCER040 - Maize           
 EXPERIMENT     : UYMZ0097 MZ    late to create DSS                             
 TREATMENT  1   : UYMZ                    

@YEAR DOY   DAS  SWXD   ROFC   DRNC   PREC  IR#C  IRRC  DTWT   SW1D   SW2D   SW3D   SW4D   SW5D   SW6D   SW7D   SW8D   SW9D   SW10
 1992 184     0   116      0      0      0     0     0   125  0.362  0.394  0.394  0.335  0.375  0.419  0.408  0.395  0.000  0.000
 1992 185     1   116      0      0      0     0     0   125  0.352  0.393  0.394  0.335  0.376  0.418  0.408  0.395  0.000  0.000
 1992 186     2   115      0      0      0     0     0   125  0.334  0.392  0.394  0.336  0.376  0.418  0.408  0.395  0.000  0.000
 1992 187     3   157      0      0      1     1    42   125  0.557  0.566  0.486  0.336  0.377  0.417  0.408  0.395  0.000  0.000
 1992 188     4   155      0      0      1     1    42   125  0.517  0.548  0.499  0.339  0.377  0.417  0.408  0.395  0.000  0.000
 1992 189     5   154      0      0      1     1    42   125  0.500  0.528  0.502  0.341  0.378  0.416  0.408  0.395  0.000  0.000
 1992 190     6   152      0      0      1     1    42   125  0.487  0.516  0.502  0.344  0.378  0.416  0.408  0.395  0.000  0.000
 1992 191     7   151      0      0      1     1    42   125  0.474  0.507  0.500  0.347  0.378  0.415  0.408  0.395  0.000  0.000
 1992 192     8   149      0      0      1     1    42   125  0.461  0.500  0.498  0.350  0.379  0.415  0.408  0.395  0.000  0.000
 1992 193     9   147      0      0      1     1    42   125  0.441  0.494  0.495  0.352  0.379  0.415  0.408  0.395  0.000  0.000
 1992 194    10   148      0      0      3     1    42   125  0.463  0.487  0.493  0.354  0.380  0.414  0.408  0.395  0.000  0.000
 1992 195    11   177      0      0     32     1    42   125  0.561  0.565  0.565  0.391  0.380  0.414  0.407  0.395  0.000  0.000
 1992 196    12   180      0      0     37     1    42   125  0.546  0.568  0.564  0.419  0.381  0.414  0.407  0.395  0.000  0.000
 1992 197    13   183      0      0     41     1    42   125  0.544  0.568  0.564  0.435  0.383  0.413  0.407  0.395  0.000  0.000
 1992 198    14   181      0      0     41     1    42   125  0.510  0.557  0.555  0.437  0.398  0.413  0.407  0.395  0.000  0.000
 1992 199    15   180      0      0     41     1    42   125  0.512  0.538  0.549  0.437  0.407  0.413  0.407  0.395  0.000  0.000
 1992 200    16   179      0      0     41     1    42   125  0.520  0.532  0.544  0.437  0.410  0.413  0.407  0.395  0.000  0.000
 1992 201    17   184      0      0     48     1    42   125  0.539  0.563  0.546  0.439  0.413  0.413  0.407  0.395  0.000  0.000
 1992 202    18   183      0      0     48     1    42   125  0.508  0.553  0.545  0.439  0.421  0.413  0.407  0.395  0.000  0.000
 1992 203    19   181      0      0     48     1    42   125  0.493  0.536  0.544  0.438  0.425  0.413  0.407  0.395  0.000  0.000
 1992 204    20   180      0      0     48     1    42   125  0.509  0.527  0.541  0.438  0.425  0.413  0.407  0.395  0.000  0.000
 1992 205    21   179      0      0     48     1    42   125  0.508  0.526  0.538  0.437  0.425  0.413  0.407  0.395  0.000  0.000
 1992 206    22   178      0      0     48     1    42   125  0.501  0.524  0.535  0.437  0.425  0.413  0.407  0.395  0.000  0.000
 1992 207    23   176      0      0     48     1    42   125  0.478  0.521  0.533  0.436  0.426  0.413  0.407  0.395  0.000  0.000
 1992 208    24   181      0      0     53     1    42   125  0.570  0.530  0.531  0.435  0.426  0.413  0.407  0.395  0.000  0.000
 1992 209    25   180      0      0     53     1    42   125  0.514  0.540  0.532  0.434  0.426  0.413  0.407  0.395  0.000  0.000
 1992 210    26   177      0      0     53     1    42   125  0.485  0.530  0.532  0.434  0.426  0.413  0.407  0.395  0.000  0.000
 1992 211    27   176      0      0     53     1    42   125  0.493  0.520  0.530  0.433  0.426  0.413  0.406  0.395  0.000  0.000
 1992 212    28   175      0      0     53     1    42   125  0.485  0.516  0.528  0.433  0.426  0.413  0.406  0.395  0.000  0.000
 1992 213    29   174      0      0     53     1    42   125  0.479  0.512  0.526  0.432  0.426  0.413  0.406  0.395  0.000  0.000
 1992 214    30   173      0      0     53     1    42   125  0.476  0.508  0.524  0.432  0.426  0.413  0.406  0.394  0.000  0.000
 1992 215    31   172      0      0     53     1    42   125  0.474  0.505  0.522  0.431  0.426  0.413  0.406  0.394  0.000  0.000
 1992 216    32   172      0      0     53     1    42   125  0.473  0.503  0.520  0.430  0.426  0.413  0.406  0.394  0.000  0.000
 1992 217    33   171      0      0     53     1    42   125  0.471  0.500  0.518  0.430  0.425  0.413  0.406  0.394  0.000  0.000
 1992 218    34   170      0      0     53     1    42   125  0.470  0.499  0.516  0.429  0.425  0.414  0.406  0.394  0.000  0.000
 1992 219    35   180      0      0     65     1    42   125  0.533  0.557  0.522  0.428  0.425  0.414  0.406  0.394  0.000  0.000
 1992 220    36   178      0      0     65     1    42   125  0.511  0.542  0.530  0.428  0.425  0.414  0.406  0.394  0.000  0.000
 1992 221    37   176      0      0     65     1    42   125  0.493  0.529  0.529  0.428  0.425  0.414  0.406  0.394  0.000  0.000
 1992 222    38   175      0      0     65     1    42   125  0.489  0.520  0.528  0.428  0.425  0.414  0.406  0.394  0.000  0.000
 1992 223    39   175      0      0     67     1    42   125  0.513  0.515  0.526  0.428  0.425  0.414  0.406  0.394  0.000  0.000
 1992 224    40   174      0      0     67     1    42   125  0.492  0.517  0.524  0.428  0.424  0.414  0.406  0.394  0.000  0.000
 1992 225    41   173      0      0     67     1    42   125  0.487  0.513  0.523  0.428  0.424  0.414  0.406  0.394  0.000  0.000
 1992 226    42   172      0      0     67     1    42   125  0.483  0.509  0.521  0.428  0.424  0.414  0.406  0.394  0.000  0.000
 1992 227    43   172      0      0     67     1    42   125  0.481  0.506  0.520  0.427  0.424  0.414  0.406  0.394  0.000  0.000
 1992 228    44   171      0      0     67     1    42   125  0.478  0.504  0.518  0.427  0.424  0.414  0.406  0.394  0.000  0.000
 1992 229    45   170      0      0     67     1    42   125  0.476  0.502  0.516  0.427  0.424  0.414  0.406  0.394  0.000  0.000
 1992 230    46   170      0      0     67     1    42   125  0.475  0.500  0.515  0.426  0.424  0.414  0.406  0.394  0.000  0.000
 1992 231    47   169      0      0     67     1    42   125  0.473  0.498  0.513  0.426  0.424  0.414  0.406  0.394  0.000  0.000
 1992 232    48   169      0      0     67     1    42   125  0.472  0.496  0.512  0.425  0.423  0.414  0.406  0.394  0.000  0.000
 1992 233    49   168      0      0     67     1    42   125  0.470  0.494  0.511  0.425  0.423  0.414  0.406  0.394  0.000  0.000
 1992 234    50   167      0      0     67     1    42   125  0.469  0.493  0.509  0.424  0.423  0.414  0.406  0.394  0.000  0.000
 1992 235    51   175      0      0     75     1    42   125  0.552  0.527  0.508  0.424  0.423  0.414  0.406  0.394  0.000  0.000
 1992 236    52   174      0      0     75     1    42   125  0.514  0.530  0.512  0.423  0.423  0.414  0.406  0.394  0.000  0.000
 1992 237    53   173      0      0     75     1    42   125  0.508  0.522  0.514  0.423  0.422  0.414  0.406  0.394  0.000  0.000
 1992 238    54   172      0      0     75     1    42   125  0.500  0.516  0.515  0.423  0.422  0.414  0.406  0.394  0.000  0.000
 1992 239    55   171      0      0     75     1    42   125  0.494  0.512  0.515  0.423  0.422  0.414  0.406  0.394  0.000  0.000
 1992 240    56   170      0      0     75     1    42   125  0.489  0.508  0.514  0.423  0.422  0.414  0.406  0.394  0.000  0.000
 1992 241    57   170      0      0     75     1    42   125  0.486  0.505  0.513  0.423  0.422  0.414  0.406  0.394  0.000  0.000
 1992 242    58   169      0      0     75     1    42   125  0.482  0.502  0.512  0.422  0.422  0.414  0.406  0.394  0.000  0.000
 1992 243    59   222      0     12    143     1    42   125  0.554  0.565  0.567  0.470  0.460  0.447  0.439  0.432  0.000  0.000
 1992 244    60   207      0     27    143     1    42   125  0.525  0.556  0.557  0.457  0.449  0.436  0.427  0.417  0.000  0.000
 1992 245    61   204      0     29    144     1    42   125  0.529  0.543  0.553  0.454  0.448  0.433  0.428  0.417  0.000  0.000
 1992 246    62   195      0     36    144     1    42   125  0.511  0.538  0.548  0.447  0.441  0.427  0.420  0.408  0.000  0.000
 1992 247    63   188      0     41    144     1    42   125  0.484  0.530  0.543  0.444  0.437  0.424  0.415  0.403  0.000  0.000
 1992 248    64   183      0     43    144     1    42   125  0.450  0.521  0.538  0.441  0.435  0.422  0.412  0.400  0.000  0.000
 1992 249    65   180      0     44    144     1    42   125  0.452  0.511  0.534  0.439  0.433  0.422  0.411  0.398  0.000  0.000
 1992 250    66   178      0     44    144     1    42   125  0.452  0.505  0.530  0.438  0.433  0.422  0.411  0.398  0.000  0.000
 1992 251    67   177      0     44    144     1    42   125  0.452  0.500  0.526  0.437  0.433  0.422  0.411  0.398  0.000  0.000
 1992 252    68   176      0     44    144     1    42   125  0.451  0.496  0.522  0.436  0.433  0.422  0.411  0.398  0.000  0.000
 1992 253    69   175      0     44    144     1    42   125  0.450  0.493  0.520  0.435  0.433  0.422  0.411  0.398  0.000  0.000
 1992 254    70   192      0     44    164     1    42   125  0.519  0.565  0.554  0.441  0.434  0.421  0.411  0.398  0.000  0.000
 1992 255    71   197      0     45    171     1    42   125  0.559  0.559  0.564  0.449  0.437  0.422  0.412  0.398  0.000  0.000
 1992 256    72   191      0     49    171     1    42   125  0.525  0.551  0.555  0.444  0.435  0.422  0.410  0.397  0.000  0.000
 1992 257    73   186      0     50    171     1    42   125  0.473  0.538  0.549  0.442  0.433  0.422  0.410  0.397  0.000  0.000
 1992 258    74   183      0     51    171     1    42   125  0.476  0.522  0.541  0.440  0.433  0.422  0.410  0.397  0.000  0.000
 1992 259    75   180      0     51    171     1    42   125  0.452  0.515  0.535  0.440  0.433  0.422  0.410  0.397  0.000  0.000
 1992 260    76   178      0     51    171     1    42   125  0.449  0.506  0.530  0.439  0.433  0.422  0.410  0.397  0.000  0.000
 1992 261    77   191      0     51    186     1    42   125  0.551  0.564  0.542  0.439  0.433  0.421  0.411  0.397  0.000  0.000
 1992 262    78   186      0     52    186     1    42   125  0.485  0.553  0.540  0.439  0.433  0.421  0.411  0.397  0.000  0.000
 1992 263    79   183      0     52    186     1    42   125  0.471  0.527  0.538  0.439  0.433  0.421  0.411  0.397  0.000  0.000
 1992 264    80   179      0     52    186     1    42   125  0.448  0.515  0.532  0.438  0.433  0.421  0.411  0.397  0.000  0.000
 1992 265    81   191      0     53    202     1    42   125  0.516  0.561  0.549  0.442  0.434  0.421  0.411  0.398  0.000  0.000
 1992 266    82   185      0     54    202     1    42   125  0.480  0.539  0.543  0.440  0.433  0.421  0.411  0.398  0.000  0.000
 1992 267    83   181      0     54    202     1    42   125  0.456  0.522  0.537  0.440  0.433  0.421  0.411  0.398  0.000  0.000
 1992 268    84   183      0     54    205     1    42   125  0.526  0.511  0.531  0.439  0.433  0.421  0.411  0.398  0.000  0.000
 1992 269    85   179      0     54    205     1    42   125  0.466  0.516  0.527  0.438  0.433  0.421  0.411  0.398  0.000  0.000
 1992 270    86   179      0     54    207     1    42   125  0.498  0.506  0.523  0.436  0.433  0.421  0.411  0.398  0.000  0.000
 1992 271    87   176      0     54    207     1    42   125  0.465  0.504  0.519  0.435  0.433  0.421  0.411  0.398  0.000  0.000
 1992 272    88   174      0     54    207     1    42   125  0.452  0.496  0.514  0.433  0.433  0.421  0.411  0.398  0.000  0.000
 1992 273    89   172      0     54    207     1    42   125  0.443  0.488  0.508  0.431  0.432  0.421  0.411  0.398  0.000  0.000
 1992 274    90   169      0     54    207     1    42   125  0.434  0.480  0.502  0.429  0.432  0.421  0.411  0.398  0.000  0.000
 1992 275    91   167      0     54    207     1    42   125  0.426  0.472  0.496  0.427  0.431  0.421  0.411  0.398  0.000  0.000
 1992 276    92   165      0     54    207     1    42   125  0.420  0.468  0.493  0.425  0.431  0.421  0.411  0.398  0.000  0.000
 1992 277    93   163      0     54    207     1    42   125  0.415  0.461  0.488  0.423  0.430  0.421  0.411  0.398  0.000  0.000
 1992 278    94   161      0     54    209     1    42   125  0.429  0.453  0.481  0.420  0.430  0.421  0.411  0.398  0.000  0.000
 1992 279    95   175      0     54    225     1    42   125  0.556  0.536  0.479  0.419  0.429  0.421  0.411  0.398  0.000  0.000
 1992 280    96   171      0     54    225     1    42   125  0.496  0.527  0.480  0.416  0.428  0.421  0.411  0.398  0.000  0.000
 1992 281    97   167      0     54    225     1    42   125  0.464  0.507  0.479  0.414  0.427  0.421  0.411  0.398  0.000  0.000
 1992 282    98   163      0     54    225     1    42   125  0.438  0.491  0.476  0.411  0.426  0.421  0.411  0.398  0.000  0.000
 1992 283    99   158      0     54    225     1    42   125  0.397  0.477  0.472  0.408  0.425  0.421  0.411  0.398  0.000  0.000
 1992 284   100   154      0     54    225     1    42   125  0.383  0.462  0.466  0.405  0.424  0.421  0.411  0.398  0.000  0.000
 1992 285   101   169      0     54    243     1    42   125  0.537  0.537  0.464  0.401  0.423  0.420  0.411  0.398  0.000  0.000
 1992 286   102   164      0     54    243     1    42   125  0.491  0.523  0.465  0.398  0.421  0.420  0.411  0.398  0.000  0.000
 1992 287   103   159      0     54    243     1    42   125  0.459  0.502  0.462  0.394  0.420  0.420  0.411  0.398  0.000  0.000
 1992 288   104   154      0     54    243     1    42   125  0.422  0.484  0.458  0.390  0.417  0.420  0.411  0.398  0.000  0.000
 1992 289   105   180      0     54    274     1    42   125  0.545  0.552  0.547  0.393  0.415  0.420  0.411  0.398  0.000  0.000
 1992 290   106   178      0     54    274     1    42   125  0.524  0.545  0.538  0.399  0.414  0.420  0.411  0.398  0.000  0.000
 1992 291   107   173      0     54    274     1    42   125  0.498  0.530  0.528  0.397  0.412  0.420  0.411  0.398  0.000  0.000
 1992 292   108   168      0     54    274     1    42   125  0.480  0.514  0.518  0.393  0.410  0.419  0.411  0.398  0.000  0.000
 1992 293   109   166      0     54    274     1    42   125  0.486  0.505  0.512  0.393  0.408  0.419  0.411  0.398  0.000  0.000
 1992 294   110   161      0     54    274     1    42   125  0.457  0.496  0.502  0.388  0.405  0.419  0.411  0.398  0.000  0.000
 1992 295   111   156      0     54    274     1    42   125  0.432  0.483  0.492  0.383  0.402  0.418  0.411  0.398  0.000  0.000
 1992 296   112   151      0     54    274     1    42   125  0.411  0.471  0.483  0.380  0.397  0.418  0.411  0.398  0.000  0.000
 1992 297   113   145      0     54    274     1    42   125  0.397  0.457  0.471  0.375  0.392  0.417  0.411  0.398  0.000  0.000
 1992 298   114   139      0     54    274     1    42   125  0.385  0.442  0.459  0.371  0.386  0.417  0.411  0.398  0.000  0.000
 1992 299   115   143      0     54    281     1    42   125  0.526  0.432  0.449  0.369  0.383  0.416  0.411  0.398  0.000  0.000
 1992 300   116   137      0     54    281     1    42   125  0.468  0.435  0.437  0.365  0.378  0.415  0.411  0.398  0.000  0.000
 1992 301   117   160      0     54    308     1    42   125  0.538  0.563  0.487  0.363  0.376  0.414  0.411  0.398  0.000  0.000
 1992 302   118   156      0     54    308     1    42   125  0.519  0.535  0.489  0.363  0.374  0.413  0.410  0.398  0.000  0.000
 1992 303   119   151      0     54    308     1    42   125  0.504  0.512  0.481  0.362  0.371  0.412  0.410  0.398  0.000  0.000
 1992 304   120   146      0     54    308     1    42   125  0.483  0.497  0.472  0.361  0.368  0.410  0.410  0.398  0.000  0.000
 1992 305   121   140      0     54    308     1    42   125  0.461  0.481  0.462  0.359  0.366  0.408  0.410  0.398  0.000  0.000
 1992 306   122   134      0     54    308     1    42   125  0.437  0.465  0.450  0.358  0.364  0.405  0.410  0.398  0.000  0.000
 1992 307   123   145      0     54    323     1    42   125  0.558  0.534  0.445  0.357  0.363  0.404  0.410  0.398  0.000  0.000
 1992 308   124   160      0     54    342     1    42   125  0.540  0.553  0.542  0.358  0.361  0.401  0.409  0.398  0.000  0.000
 1992 309   125   156      0     54    342     1    42   125  0.524  0.540  0.530  0.364  0.360  0.399  0.409  0.398  0.000  0.000
 1992 310   126   151      0     54    342     1    42   125  0.515  0.522  0.517  0.365  0.359  0.396  0.409  0.398  0.000  0.000
 1992 311   127   146      0     54    342     1    42   125  0.496  0.509  0.504  0.364  0.358  0.392  0.409  0.398  0.000  0.000
 1992 312   128   141      0     54    342     1    42   125  0.481  0.496  0.493  0.364  0.357  0.389  0.408  0.398  0.000  0.000
 1992 313   129   135      0     54    342     1    42   125  0.462  0.481  0.480  0.362  0.355  0.386  0.408  0.398  0.000  0.000
 1992 314   130   134      0     54    348     1    42   125  0.538  0.471  0.466  0.360  0.354  0.382  0.407  0.398  0.000  0.000
 1992 315   131   137      0     54    352     1    42   125  0.533  0.510  0.463  0.360  0.354  0.381  0.407  0.398  0.000  0.000
 1992 316   132   131      0     54    352     1    42   125  0.497  0.500  0.454  0.358  0.353  0.378  0.407  0.397  0.000  0.000
 1992 317   133   129      0     54    352     1    42   125  0.490  0.491  0.452  0.358  0.352  0.377  0.406  0.397  0.000  0.000
 1992 318   134   125      0     54    352     1    42   125  0.477  0.480  0.445  0.357  0.352  0.375  0.406  0.397  0.000  0.000
 1992 319   135   135      0     54    366     1    42   125  0.553  0.548  0.445  0.355  0.351  0.373  0.405  0.397  0.000  0.000
 1992 320   136   129      0     54    366     1    42   125  0.528  0.522  0.441  0.353  0.349  0.370  0.405  0.397  0.000  0.000
 1992 321   137   123      0     54    366     1    42   125  0.504  0.504  0.433  0.352  0.348  0.368  0.405  0.397  0.000  0.000
 1992 322   138   118      0     54    366     1    42   125  0.486  0.487  0.427  0.350  0.347  0.365  0.403  0.397  0.000  0.000
 1992 323   139   112      0     54    366     1    42   125  0.464  0.468  0.420  0.348  0.346  0.362  0.400  0.397  0.000  0.000
 1992 324   140   107      0     54    366     1    42   125  0.445  0.452  0.416  0.347  0.345  0.360  0.395  0.397  0.000  0.000
 1992 325   141   141      0     54    371     2    72   125  0.563  0.561  0.535  0.346  0.344  0.359  0.393  0.396  0.000  0.000
 1992 326   142   139      0     54    371     2    72   125  0.548  0.547  0.535  0.350  0.344  0.358  0.391  0.396  0.000  0.000
 1992 327   143   135      0     54    371     2    72   125  0.534  0.536  0.527  0.353  0.344  0.357  0.388  0.396  0.000  0.000
 1992 328   144   138      0     54    378     2    72   125  0.555  0.556  0.530  0.355  0.343  0.356  0.383  0.395  0.000  0.000
 1992 329   145   133      0     54    378     2    72   125  0.536  0.542  0.524  0.357  0.343  0.355  0.378  0.395  0.000  0.000
 1992 330   146   127      0     54    378     2    72   125  0.522  0.525  0.511  0.358  0.342  0.353  0.372  0.394  0.000  0.000
 1992 331   147   121      0     54    378     2    72   125  0.504  0.508  0.496  0.358  0.341  0.351  0.366  0.394  0.000  0.000
 1992 332   148   114      0     54    378     2    72   125  0.485  0.491  0.481  0.357  0.340  0.350  0.361  0.393  0.000  0.000
 1992 333   149   110      0     54    378     2    72   125  0.474  0.480  0.472  0.356  0.340  0.349  0.359  0.392  0.000  0.000
 1992 334   150   107      0     54    380     2    72   125  0.493  0.469  0.462  0.355  0.339  0.348  0.357  0.392  0.000  0.000
 1992 335   151   109      0     54    388     2    72   125  0.540  0.500  0.447  0.353  0.339  0.346  0.354  0.391  0.000  0.000
 1992 336   152   102      0     54    388     2    72   125  0.494  0.490  0.434  0.351  0.338  0.345  0.351  0.390  0.000  0.000
 1992 337   153    96      0     54    388     2    72   125  0.470  0.471  0.424  0.349  0.337  0.343  0.349  0.389  0.000  0.000
 1992 338   154    90      0     54    388     2    72   125  0.443  0.448  0.415  0.346  0.336  0.342  0.346  0.389  0.000  0.000
 1992 339   155   113      0     54    388     3   103   125  0.537  0.542  0.491  0.344  0.334  0.340  0.343  0.388  0.000  0.000
 1992 340   156   109      0     54    388     3   103   125  0.526  0.520  0.483  0.344  0.334  0.339  0.342  0.387  0.000  0.000
 1992 341   157   102      0     54    388     3   103   125  0.498  0.500  0.468  0.344  0.333  0.338  0.341  0.386  0.000  0.000
 1992 342   158    95      0     54    388     3   103   125  0.474  0.479  0.451  0.343  0.332  0.337  0.340  0.385  0.000  0.000
 1992 343   159    92      0     54    388     3   103   125  0.462  0.467  0.443  0.343  0.332  0.336  0.339  0.383  0.000  0.000
 1992 344   160    87      0     54    388     3   103   125  0.447  0.454  0.432  0.342  0.331  0.336  0.339  0.381  0.000  0.000
 1992 345   161    83      0     54    388     3   103   125  0.433  0.441  0.424  0.342  0.331  0.335  0.338  0.379  0.000  0.000
 1992 346   162   107      0     54    388     4   134   125  0.546  0.546  0.488  0.340  0.330  0.334  0.337  0.374  0.000  0.000
 1992 347   163   100      0     54    388     4   134   125  0.520  0.519  0.478  0.341  0.330  0.333  0.336  0.369  0.000  0.000
 1992 348   164    97      0     54    391     4   134   125  0.541  0.506  0.464  0.341  0.329  0.332  0.335  0.364  0.000  0.000
 1992 349   165    91      0     54    391     4   134   125  0.497  0.497  0.453  0.340  0.328  0.332  0.334  0.360  0.000  0.000
 1992 350   166    84      0     54    391     4   134   125  0.472  0.476  0.437  0.340  0.328  0.331  0.333  0.355  0.000  0.000
 1992 351   167    78      0     54    392     4   134   125  0.473  0.457  0.423  0.339  0.327  0.330  0.332  0.352  0.000  0.000
 1992 352   168    72      0     54    392     4   134   125  0.442  0.437  0.414  0.337  0.327  0.329  0.331  0.348  0.000  0.000
 1992 353   169    97      0     54    392     5   165   125  0.536  0.546  0.489  0.336  0.326  0.328  0.329  0.344  0.000  0.000
 1992 354   170    90      0     54    392     5   165   125  0.515  0.514  0.476  0.336  0.325  0.328  0.328  0.341  0.000  0.000
 1992 355   171    83      0     54    392     5   165   125  0.488  0.492  0.459  0.337  0.325  0.327  0.327  0.338  0.000  0.000
 1992 356   172    76      0     54    392     5   165   125  0.462  0.469  0.441  0.336  0.324  0.326  0.326  0.336  0.000  0.000
 1992 357   173    71      0     54    392     5   165   125  0.444  0.453  0.428  0.336  0.324  0.326  0.326  0.335  0.000  0.000
 1992 358   174    73      0     54    396     5   165   125  0.521  0.443  0.423  0.335  0.324  0.325  0.325  0.334  0.000  0.000
 1992 359   175    68      0     54    396     5   165   125  0.477  0.436  0.416  0.335  0.323  0.325  0.324  0.332  0.000  0.000
 1992 360   176    91      0     54    396     6   196   125  0.524  0.548  0.490  0.333  0.322  0.324  0.323  0.330  0.000  0.000
 1992 361   177    84      0     54    396     6   196   125  0.511  0.510  0.476  0.334  0.322  0.323  0.322  0.328  0.000  0.000
 1992 362   178    77      0     54    396     6   196   125  0.480  0.486  0.457  0.334  0.321  0.323  0.322  0.327  0.000  0.000
 1992 363   179    70      0     54    396     6   196   125  0.454  0.464  0.439  0.334  0.321  0.322  0.321  0.325  0.000  0.000
 1992 364   180    68      0     54    396     6   196   125  0.448  0.456  0.433  0.334  0.321  0.322  0.321  0.325  0.000  0.000
 1992 365   181    65      0     54    396     6   196   125  0.437  0.446  0.427  0.334  0.321  0.322  0.320  0.324  0.000  0.000
 1992 366   182    91      0     54    396     7   225   125  0.550  0.552  0.492  0.333  0.320  0.321  0.320  0.324  0.000  0.000
 1993 001   183    84      0     54    396     7   225   125  0.516  0.521  0.481  0.334  0.320  0.321  0.319  0.322  0.000  0.000
 1993 002   184    77      0     54    396     7   225   125  0.491  0.497  0.465  0.335  0.319  0.320  0.319  0.321  0.000  0.000
 1993 003   185    70      0     54    396     7   225   125  0.463  0.475  0.447  0.335  0.319  0.320  0.318  0.320  0.000  0.000
 1993 004   186    63      0     54    396     7   225   125  0.431  0.451  0.428  0.334  0.319  0.319  0.317  0.319  0.000  0.000
 1993 005   187    85      0     54    396     8   255   125  0.537  0.539  0.485  0.332  0.318  0.318  0.316  0.318  0.000  0.000
 1993 006   188   111      0     54    428     8   255   125  0.544  0.544  0.557  0.434  0.318  0.318  0.316  0.318  0.000  0.000
 1993 007   189   129      0     54    451     8   255   125  0.548  0.559  0.559  0.460  0.401  0.318  0.316  0.317  0.000  0.000
 1993 008   190   124      0     54    451     8   255   125  0.527  0.548  0.544  0.442  0.414  0.318  0.315  0.317  0.000  0.000
 1993 009   191   118      0     54    451     8   255   125  0.513  0.532  0.535  0.429  0.407  0.318  0.315  0.316  0.000  0.000
 1993 010   192   111      0     54    451     8   255   125  0.499  0.518  0.524  0.420  0.398  0.318  0.315  0.316  0.000  0.000
 1993 011   193   103      0     54    451     8   255   125  0.474  0.504  0.511  0.408  0.387  0.318  0.315  0.315  0.000  0.000
 1993 012   194    95      0     54    451     8   255   125  0.450  0.488  0.498  0.397  0.379  0.318  0.314  0.315  0.000  0.000
 1993 013   195    87      0     54    451     8   255   125  0.429  0.472  0.484  0.385  0.373  0.318  0.314  0.314  0.000  0.000
 1993 014   196    83      0     54    452     8   255   125  0.441  0.458  0.472  0.378  0.370  0.318  0.314  0.314  0.000  0.000
 1993 015   197    76      0     54    452     8   255   125  0.403  0.444  0.457  0.371  0.365  0.318  0.313  0.313  0.000  0.000
 1993 016   198    77      0     54    456     8   255   125  0.475  0.436  0.450  0.369  0.364  0.317  0.313  0.313  0.000  0.000
 1993 017   199    70      0     54    456     8   255   125  0.425  0.429  0.436  0.365  0.360  0.317  0.313  0.313  0.000  0.000
 1993 018   200    97      0     54    456     9   285   125  0.545  0.562  0.490  0.362  0.358  0.317  0.313  0.312  0.000  0.000
 1993 019   201    91      0     54    456     9   285   125  0.502  0.533  0.488  0.361  0.356  0.317  0.312  0.312  0.000  0.000
 1993 020   202    84      0     54    456     9   285   125  0.474  0.504  0.476  0.359  0.354  0.317  0.312  0.311  0.000  0.000
 1993 021   203    76      0     54    456     9   285   125  0.434  0.481  0.462  0.357  0.352  0.316  0.312  0.311  0.000  0.000
[...]
 1995 239    55   149      0      0     47     1    42   125  0.443  0.463  0.478  0.400  0.402  0.407  0.404  0.393  0.000  0.000
 1995 240    56   149      0      0     47     1    42   125  0.438  0.462  0.478  0.400  0.402  0.407  0.404  0.393  0.000  0.000
 1995 241    57   155      0      0     55     1    42   125  0.552  0.471  0.477  0.400  0.402  0.407  0.404  0.393  0.000  0.000
 1995 242    58   154      0      0     55     1    42   125  0.505  0.487  0.478  0.400  0.402  0.407  0.404  0.393  0.000  0.000
 1995 243    59   154      0      0     55     1    42   125  0.484  0.489  0.479  0.400  0.402  0.406  0.404  0.393  0.000  0.000
 1995 244    60   153      0      0     55     1    42   125  0.473  0.486  0.479  0.400  0.402  0.406  0.404  0.393  0.000  0.000
 1995 245    61   152      0      0     55     1    42   125  0.466  0.483  0.480  0.400  0.402  0.406  0.403  0.393  0.000  0.000
 1995 246    62   152      0      0     55     1    42   125  0.460  0.479  0.480  0.400  0.402  0.406  0.403  0.393  0.000  0.000
 1995 247    63   151      0      0     55     1    42   125  0.455  0.477  0.480  0.400  0.402  0.406  0.403  0.393  0.000  0.000
 1995 248    64   150      0      0     55     1    42   125  0.451  0.474  0.479  0.400  0.402  0.406  0.403  0.393  0.000  0.000
 1995 249    65   150      0      0     55     1    42   125  0.446  0.470  0.479  0.400  0.402  0.406  0.403  0.393  0.000  0.000
 1995 250    66   156      0      0     63     1    42   125  0.527  0.493  0.478  0.399  0.403  0.406  0.403  0.393  0.000  0.000
 1995 251    67   156      0      0     64     1    42   125  0.511  0.499  0.480  0.399  0.403  0.406  0.403  0.393  0.000  0.000
 1995 252    68   155      0      0     64     1    42   125  0.487  0.498  0.481  0.399  0.403  0.406  0.403  0.392  0.000  0.000
 1995 253    69   154      0      0     64     1    42   125  0.476  0.493  0.482  0.400  0.403  0.406  0.403  0.392  0.000  0.000
 1995 254    70   153      0      0     64     1    42   125  0.467  0.487  0.481  0.400  0.403  0.406  0.403  0.392  0.000  0.000
 1995 255    71   152      0      0     64     1    42   125  0.459  0.482  0.481  0.400  0.403  0.406  0.403  0.392  0.000  0.000
 1995 256    72   161      0      0     75     1    42   125  0.553  0.527  0.480  0.400  0.403  0.406  0.403  0.392  0.000  0.000
 1995 257    73   157      0      0     75     1    42   125  0.476  0.526  0.484  0.400  0.403  0.406  0.403  0.392  0.000  0.000
 1995 258    74   155      0      0     75     1    42   125  0.473  0.507  0.485  0.400  0.403  0.406  0.403  0.392  0.000  0.000
 1995 259    75   154      0      0     75     1    42   125  0.462  0.495  0.484  0.400  0.403  0.406  0.403  0.392  0.000  0.000
 1995 260    76   152      0      0     75     1    42   125  0.453  0.487  0.483  0.400  0.403  0.406  0.402  0.392  0.000  0.000
 1995 261    77   151      0      0     75     1    42   125  0.444  0.480  0.481  0.400  0.403  0.406  0.402  0.392  0.000  0.000
 1995 262    78   150      0      0     76     1    42   125  0.458  0.473  0.479  0.400  0.403  0.405  0.402  0.392  0.000  0.000
 1995 263    79   149      0      0     76     1    42   125  0.444  0.469  0.477  0.400  0.403  0.405  0.402  0.392  0.000  0.000
 1995 264    80   147      0      0     76     1    42   125  0.433  0.465  0.474  0.400  0.403  0.405  0.402  0.392  0.000  0.000
 1995 265    81   151      0      0     82     1    42   125  0.520  0.462  0.473  0.399  0.403  0.405  0.402  0.392  0.000  0.000
 1995 266    82   150      0      0     82     1    42   125  0.477  0.470  0.473  0.399  0.403  0.405  0.402  0.392  0.000  0.000
 1995 267    83   148      0      0     82     1    42   125  0.453  0.469  0.470  0.399  0.403  0.405  0.402  0.392  0.000  0.000
 1995 268    84   146      0      0     82     1    42   125  0.437  0.464  0.468  0.398  0.403  0.405  0.402  0.392  0.000  0.000
 1995 269    85   145      0      0     82     1    42   125  0.425  0.459  0.466  0.398  0.403  0.405  0.402  0.391  0.000  0.000
 1995 270    86   143      0      0     82     1    42   125  0.416  0.453  0.463  0.397  0.403  0.405  0.402  0.391  0.000  0.000
 1995 271    87   142      0      0     82     1    42   125  0.408  0.448  0.460  0.397  0.403  0.405  0.402  0.391  0.000  0.000
 1995 272    88   147      0      0     89     1    42   125  0.522  0.446  0.459  0.396  0.403  0.405  0.402  0.391  0.000  0.000
 1995 273    89   146      0      0     89     1    42   125  0.486  0.456  0.458  0.396  0.403  0.405  0.402  0.391  0.000  0.000
 1995 274    90   145      0      0     90     1    42   125  0.463  0.458  0.458  0.395  0.402  0.405  0.402  0.391  0.000  0.000
 1995 275    91   143      0      0     90     1    42   125  0.439  0.455  0.456  0.395  0.402  0.405  0.402  0.391  0.000  0.000
 1995 276    92   179      0      0    128     1    42   125  0.548  0.565  0.567  0.417  0.402  0.405  0.401  0.391  0.000  0.000
 1995 277    93   177      0      0    128     1    42   125  0.520  0.554  0.553  0.436  0.403  0.405  0.401  0.391  0.000  0.000
 1995 278    94   172      0      0    128     1    42   125  0.468  0.534  0.544  0.436  0.409  0.405  0.401  0.391  0.000  0.000
 1995 279    95   169      0      0    128     1    42   125  0.467  0.517  0.535  0.435  0.410  0.405  0.401  0.391  0.000  0.000
 1995 280    96   167      0      0    128     1    42   125  0.465  0.509  0.529  0.433  0.411  0.405  0.401  0.391  0.000  0.000
 1995 281    97   166      0      0    131     1    42   125  0.499  0.500  0.520  0.430  0.412  0.405  0.401  0.391  0.000  0.000
 1995 282    98   166      0      0    133     1    42   125  0.511  0.501  0.514  0.428  0.412  0.405  0.401  0.391  0.000  0.000
 1995 283    99   163      0      0    133     1    42   125  0.472  0.502  0.510  0.426  0.412  0.405  0.401  0.391  0.000  0.000
 1995 284   100   161      0      0    133     1    42   125  0.459  0.495  0.507  0.424  0.413  0.405  0.401  0.391  0.000  0.000
 1995 285   101   168      0      0    142     1    42   125  0.562  0.517  0.504  0.422  0.413  0.405  0.401  0.391  0.000  0.000
 1995 286   102   166      0      0    144     1    42   125  0.509  0.535  0.503  0.420  0.413  0.405  0.401  0.390  0.000  0.000
 1995 287   103   161      0      0    144     1    42   125  0.469  0.514  0.499  0.417  0.412  0.405  0.401  0.390  0.000  0.000
 1995 288   104   156      0      0    144     1    42   125  0.440  0.496  0.492  0.413  0.412  0.405  0.401  0.390  0.000  0.000
 1995 289   105   151      0      0    144     1    42   125  0.403  0.481  0.486  0.409  0.411  0.405  0.401  0.390  0.000  0.000
 1995 290   106   147      0      0    144     1    42   125  0.385  0.468  0.479  0.405  0.410  0.405  0.401  0.390  0.000  0.000
 1995 291   107   143      0      0    144     1    42   125  0.374  0.455  0.471  0.400  0.408  0.405  0.401  0.390  0.000  0.000
 1995 292   108   139      0      0    144     1    42   125  0.365  0.444  0.463  0.395  0.407  0.405  0.401  0.390  0.000  0.000
 1995 293   109   135      0      0    144     1    42   125  0.356  0.433  0.455  0.389  0.404  0.405  0.401  0.390  0.000  0.000
 1995 294   110   160      0      0    144     2    73   125  0.532  0.558  0.488  0.383  0.401  0.405  0.401  0.390  0.000  0.000
 1995 295   111   155      0      0    144     2    73   125  0.492  0.529  0.489  0.380  0.398  0.405  0.401  0.390  0.000  0.000
 1995 296   112   149      0      0    144     2    73   125  0.472  0.505  0.482  0.377  0.395  0.405  0.400  0.390  0.000  0.000
 1995 297   113   149      0      0    150     2    73   125  0.536  0.501  0.473  0.374  0.392  0.405  0.400  0.390  0.000  0.000
 1995 298   114   151      0      0    153     2    73   125  0.533  0.517  0.472  0.373  0.391  0.405  0.400  0.390  0.000  0.000
 1995 299   115   147      0      0    153     2    73   125  0.495  0.510  0.468  0.371  0.388  0.404  0.400  0.390  0.000  0.000
 1995 300   116   143      0      0    153     2    73   125  0.477  0.495  0.463  0.370  0.386  0.404  0.400  0.390  0.000  0.000
 1995 301   117   138      0      0    153     2    73   125  0.451  0.480  0.455  0.367  0.384  0.404  0.400  0.390  0.000  0.000
 1995 302   118   134      0      0    153     2    73   125  0.424  0.466  0.448  0.366  0.382  0.404  0.400  0.390  0.000  0.000
 1995 303   119   129      0      0    153     2    73   125  0.399  0.451  0.438  0.363  0.379  0.403  0.400  0.390  0.000  0.000
 1995 304   120   152      0      0    153     3   102   125  0.535  0.552  0.490  0.361  0.376  0.403  0.400  0.390  0.000  0.000
 1995 305   121   146      0      0    153     3   102   125  0.492  0.525  0.486  0.360  0.373  0.402  0.400  0.389  0.000  0.000
 1995 306   122   140      0      0    153     3   102   125  0.463  0.499  0.475  0.359  0.371  0.402  0.400  0.389  0.000  0.000
 1995 307   123   133      0      0    153     3   102   125  0.439  0.478  0.462  0.358  0.368  0.401  0.400  0.389  0.000  0.000
 1995 308   124   127      0      0    153     3   102   125  0.402  0.458  0.447  0.356  0.366  0.400  0.400  0.389  0.000  0.000
 1995 309   125   129      0      0    161     3   102   125  0.540  0.444  0.434  0.354  0.363  0.400  0.400  0.389  0.000  0.000
 1995 310   126   135      0      0    168     3   102   125  0.527  0.511  0.431  0.354  0.363  0.399  0.400  0.389  0.000  0.000
 1995 311   127   190      1      0    226     3   102   125  0.546  0.561  0.568  0.469  0.436  0.401  0.399  0.389  0.000  0.000
 1995 312   128   210      1      0    248     3   102   125  0.559  0.565  0.565  0.467  0.458  0.441  0.417  0.396  0.000  0.000
 1995 313   129   211      1      1    251     3   102   125  0.560  0.565  0.564  0.463  0.456  0.438  0.426  0.403  0.000  0.000
 1995 314   130   195      1     11    251     3   102   125  0.527  0.550  0.548  0.444  0.440  0.429  0.419  0.400  0.000  0.000
 1995 315   131   186      1     14    251     3   102   125  0.517  0.534  0.539  0.433  0.430  0.424  0.415  0.398  0.000  0.000
 1995 316   132   180      1     16    251     3   102   125  0.507  0.522  0.529  0.425  0.423  0.421  0.412  0.398  0.000  0.000
 1995 317   133   174      1     16    251     3   102   125  0.497  0.513  0.521  0.419  0.416  0.420  0.410  0.398  0.000  0.000
 1995 318   134   168      1     16    251     3   102   125  0.483  0.503  0.511  0.411  0.409  0.419  0.410  0.398  0.000  0.000
 1995 319   135   162      1     16    251     3   102   125  0.469  0.493  0.501  0.404  0.401  0.416  0.410  0.398  0.000  0.000
 1995 320   136   207      1     16    299     3   102   125  0.569  0.563  0.564  0.467  0.458  0.429  0.417  0.401  0.000  0.000
 1995 321   137   193      1     25    299     3   102   125  0.538  0.547  0.547  0.448  0.440  0.423  0.413  0.398  0.000  0.000
 1995 322   138   185      1     27    299     3   102   125  0.523  0.536  0.538  0.437  0.429  0.419  0.411  0.397  0.000  0.000
 1995 323   139   178      1     28    299     3   102   125  0.513  0.525  0.530  0.429  0.421  0.415  0.410  0.397  0.000  0.000
 1995 324   140   172      1     28    299     3   102   125  0.502  0.516  0.522  0.422  0.414  0.411  0.410  0.397  0.000  0.000
 1995 325   141   168      1     28    299     3   102   125  0.498  0.510  0.516  0.417  0.410  0.408  0.409  0.397  0.000  0.000
 1995 326   142   163      1     28    299     3   102   125  0.490  0.503  0.510  0.412  0.405  0.404  0.409  0.397  0.000  0.000
 1995 327   143   157      1     28    299     3   102   125  0.478  0.495  0.502  0.406  0.399  0.399  0.408  0.397  0.000  0.000
 1995 328   144   151      1     28    299     3   102   125  0.466  0.487  0.495  0.400  0.393  0.393  0.406  0.397  0.000  0.000
 1995 329   145   146      1     28    299     3   102   125  0.458  0.479  0.488  0.395  0.388  0.389  0.403  0.397  0.000  0.000
 1995 330   146   140      1     28    299     3   102   125  0.458  0.471  0.480  0.388  0.384  0.385  0.400  0.397  0.000  0.000
 1995 331   147   134      1     28    299     3   102   125  0.444  0.463  0.473  0.383  0.380  0.381  0.395  0.397  0.000  0.000
 1995 332   148   129      1     28    299     3   102   125  0.433  0.456  0.466  0.379  0.377  0.379  0.391  0.396  0.000  0.000
 1995 333   149   122      1     28    299     3   102   125  0.419  0.446  0.456  0.374  0.373  0.375  0.383  0.396  0.000  0.000
 1995 334   150   117      1     28    301     3   102   125  0.441  0.435  0.446  0.371  0.370  0.372  0.376  0.395  0.000  0.000
 1995 335   151   113      1     28    301     3   102   125  0.428  0.430  0.439  0.368  0.368  0.369  0.373  0.395  0.000  0.000
 1995 336   152   136      1     28    301     4   132   125  0.549  0.560  0.487  0.364  0.365  0.366  0.367  0.394  0.000  0.000
 1995 337   153   129      1     28    301     4   132   125  0.522  0.531  0.485  0.362  0.362  0.363  0.363  0.394  0.000  0.000
 1995 338   154   123      1     28    301     4   132   125  0.511  0.510  0.476  0.361  0.359  0.361  0.360  0.393  0.000  0.000
 1995 339   155   116      1     28    301     4   132   125  0.486  0.493  0.465  0.359  0.357  0.358  0.357  0.392  0.000  0.000
 1995 340   156   109      1     28    301     4   132   125  0.460  0.474  0.450  0.357  0.355  0.356  0.354  0.391  0.000  0.000
 1995 341   157   104      1     28    301     4   132   125  0.445  0.460  0.441  0.355  0.353  0.354  0.352  0.390  0.000  0.000
 1995 342   158    98      1     28    301     4   132   125  0.427  0.446  0.429  0.353  0.352  0.353  0.351  0.389  0.000  0.000
 1995 343   159   122      1     28    301     5   162   125  0.551  0.550  0.490  0.351  0.350  0.351  0.348  0.386  0.000  0.000
 1995 344   160   115      1     28    301     5   162   125  0.521  0.524  0.483  0.351  0.348  0.349  0.347  0.382  0.000  0.000
 1995 345   161   109      1     28    301     5   162   125  0.499  0.505  0.473  0.351  0.347  0.348  0.345  0.378  0.000  0.000
 1995 346   162   108      1     28    307     5   162   125  0.546  0.511  0.461  0.350  0.345  0.346  0.344  0.373  0.000  0.000
 1995 347   163   102      1     28    307     5   162   125  0.499  0.503  0.452  0.349  0.344  0.345  0.343  0.367  0.000  0.000
 1995 348   164    96      1     28    307     5   162   125  0.478  0.486  0.442  0.348  0.343  0.344  0.342  0.363  0.000  0.000
 1995 349   165    90      1     28    307     5   162   125  0.457  0.469  0.431  0.347  0.342  0.343  0.340  0.358  0.000  0.000
 1995 350   166    83      1     28    307     5   162   125  0.428  0.447  0.419  0.345  0.341  0.342  0.339  0.354  0.000  0.000
 1995 351   167   106      1     28    307     6   193   125  0.542  0.542  0.489  0.343  0.339  0.340  0.337  0.349  0.000  0.000
 1995 352   168    97      1     28    307     6   193   125  0.506  0.513  0.473  0.343  0.338  0.338  0.335  0.345  0.000  0.000
 1995 353   169    90      1     28    307     6   193   125  0.482  0.491  0.458  0.343  0.337  0.337  0.334  0.343  0.000  0.000
 1995 354   170    85      1     28    309     6   193   125  0.488  0.470  0.442  0.342  0.336  0.336  0.333  0.340  0.000  0.000
 1995 355   171    89      1     28    317     6   193   125  0.541  0.503  0.431  0.341  0.335  0.336  0.332  0.339  0.000  0.000
 1995 356   172    85      1     28    317     6   193   125  0.503  0.500  0.429  0.341  0.335  0.335  0.331  0.338  0.000  0.000
 1995 357   173    83      1     28    317     6   193   125  0.491  0.490  0.427  0.341  0.334  0.335  0.331  0.337  0.000  0.000
 1995 358   174    80      1     28    317     6   193   125  0.475  0.477  0.424  0.340  0.334  0.334  0.330  0.336  0.000  0.000
 1995 359   175    73      1     28    317     6   193   125  0.442  0.453  0.415  0.339  0.333  0.333  0.329  0.334  0.000  0.000
 1995 360   176    97      1     28    317     7   223   125  0.534  0.542  0.492  0.337  0.332  0.332  0.328  0.332  0.000  0.000
 1995 361   177    90      1     28    317     7   223   125  0.510  0.513  0.477  0.338  0.331  0.331  0.327  0.331  0.000  0.000
 1995 362   178    83      1     28    317     7   223   125  0.478  0.490  0.460  0.338  0.330  0.330  0.326  0.329  0.000  0.000
 1995 363   179    75      1     28    317     7   223   125  0.448  0.466  0.442  0.337  0.329  0.329  0.325  0.328  0.000  0.000
 1995 364   180    68      1     28    317     7   223   125  0.417  0.444  0.423  0.336  0.328  0.329  0.324  0.327  0.000  0.000
 1995 365   181    92      1     28    317     8   254   125  0.546  0.539  0.485  0.335  0.327  0.328  0.323  0.325  0.000  0.000
 1996 001   182    85      1     28    317     8   254   125  0.507  0.514  0.471  0.336  0.327  0.327  0.322  0.324  0.000  0.000
 1996 002   183    78      1     28    317     8   254   125  0.474  0.489  0.454  0.336  0.326  0.326  0.321  0.323  0.000  0.000
 1996 003   184    89      1     28    334     8   254   125  0.541  0.547  0.471  0.335  0.326  0.326  0.321  0.322  0.000  0.000
 1996 004   185    88      1     28    336     8   254   125  0.553  0.533  0.473  0.336  0.325  0.325  0.320  0.322  0.000  0.000
 1996 005   186    81      1     28    336     8   254   125  0.503  0.513  0.460  0.337  0.325  0.325  0.320  0.321  0.000  0.000
 1996 006   187    75      1     28    336     8   254   125  0.471  0.488  0.446  0.336  0.324  0.324  0.319  0.320  0.000  0.000
 1996 007   188    67      1     28    336     8   254   125  0.436  0.465  0.429  0.336  0.324  0.324  0.319  0.319  0.000  0.000
 1996 008   189    60      1     28    336     8   254   125  0.399  0.439  0.416  0.335  0.323  0.323  0.318  0.319  0.000  0.000
 1996 009   190    86      1     28    336     9   287   125  0.541  0.534  0.484  0.333  0.322  0.322  0.317  0.317  0.000  0.000
 1996 010   191    78      1     28    336     9   287   125  0.487  0.511  0.469  0.333  0.322  0.321  0.316  0.317  0.000  0.000
 1996 011   192   118      1     28    377     9   287   125  0.566  0.553  0.564  0.443  0.324  0.321  0.316  0.316  0.000  0.000
 1996 012   193   112      1     28    377     9   287   125  0.521  0.539  0.545  0.429  0.343  0.321  0.316  0.316  0.000  0.000
 1996 013   194   108      1     28    377     9   287   125  0.515  0.529  0.536  0.424  0.344  0.321  0.316  0.316  0.000  0.000
 1996 014   195   102      1     28    377     9   287   125  0.484  0.517  0.523  0.413  0.345  0.321  0.315  0.315  0.000  0.000
 1996 015   196    97      1     28    377     9   287   125  0.467  0.503  0.512  0.405  0.345  0.320  0.315  0.315  0.000  0.000
 1996 016   197    93      1     28    377     9   287   125  0.459  0.493  0.505  0.399  0.346  0.320  0.315  0.315  0.000  0.000
 1996 017   198    87      1     28    377     9   287   125  0.427  0.480  0.493  0.390  0.346  0.320  0.315  0.314  0.000  0.000
 1996 018   199    80      1     28    377     9   287   125  0.391  0.465  0.480  0.380  0.345  0.320  0.314  0.314  0.000  0.000
 1996 019   200    74      1     28    377     9   287   125  0.375  0.448  0.466  0.373  0.344  0.320  0.314  0.314  0.000  0.000
 1996 020   201    68      1     28    377     9   287   125  0.362  0.432  0.451  0.368  0.343  0.319  0.314  0.313  0.000  0.000
 1996 021   202    92      1     28    377    10   318   125  0.526  0.554  0.482  0.363  0.342  0.319  0.313  0.313  0.000  0.000
 1996 022   203    85      1     28    378    10   318   125  0.480  0.520  0.477  0.361  0.341  0.319  0.313  0.312  0.000  0.000
 1996 023   204    80      1     28    378    10   318   125  0.456  0.495  0.468  0.359  0.340  0.318  0.313  0.312  0.000  0.000
 1996 024   205    72      1     28    378    10   318   125  0.406  0.474  0.456  0.357  0.340  0.318  0.312  0.312  0.000  0.000
 1996 025   206    67      1     28    378    10   318   125  0.385  0.454  0.444  0.355  0.339  0.318  0.312  0.311  0.000  0.000
