*SOIL NITROGEN DAILY OUTPUT FILE

*DSSAT Cropping System Model Ver. 4.0.2.000               Aug 01, 2016; 14:59:40

*RUN   1        : UYMZ                    
 MODEL          : MZCER040 - Maize           
 EXPERIMENT     : UYMZ0097 MZ    late to create DSS                             
 TREATMENT  1   : UYMZ                    

@YEAR DOY   DAS  NAPC  NI#M    NLCC   NIAD    NOAD   NITD   NHTD  NI1D  NI2D  NI3D  NI4D  NI5D  NI6D  NI7D  NI8D  NI9D  NI10  NH1D  NH2D  NH3D  NH4D  NH5D  NH6D  NH7D  NH8D  NH9D  NH10    NMNC    NITC    NDNC    NIMC    AMLC
 1990 184     0     0     0     0.0   99.2   16646   76.3   22.9  15.9  15.2  15.1   8.6   4.6   0.0   0.1   0.1   0.0   0.0   0.7   1.3   1.5   1.4   1.5  1.50  1.47  1.46  0.00  0.00    0.47    1.49    0.00    0.00    0.00
 1990 185     1     0     0     0.0   99.7   16645   77.5   22.2  16.3  15.4  15.2   8.7   4.6   0.0   0.1   0.1   0.0   0.0   0.4   1.2   1.4   1.4   1.4  1.51  1.43  1.41  0.00  0.00    0.94    2.67    0.00    0.00    0.00
 1990 186     2     0     0     0.0  100.2   16645   78.5   21.7  16.5  15.6  15.3   8.7   4.7   0.1   0.1   0.1   0.0   0.0   0.2   1.1   1.4   1.4   1.4  1.51  1.40  1.37  0.00  0.00    1.39    3.69    0.00    0.00    0.00
 1990 187     3     0     1     0.0  100.6   16644   79.4   21.2   6.1  15.8  18.9   8.8   4.7   0.1   0.2   0.2   0.0   0.0   0.2   1.0   1.4   1.3   1.3  1.51  1.37  1.34  0.00  0.00    1.85    4.64    0.00    0.00    0.00
 1990 188     4     0     1     0.0  101.1   16644   80.2   20.9   6.1  15.3  19.3   8.9   4.8   0.1   0.2   0.2   0.0   0.0   0.2   1.1   1.4   1.3   1.3  1.51  1.34  1.30  0.00  0.00    2.32    5.36    0.00    0.00    0.00
 1990 189     5     0     1     0.0  101.6   16643   81.0   20.6   6.2  15.0  19.6   9.1   4.9   0.1   0.3   0.3   0.0   0.0   0.2   1.1   1.4   1.2   1.2  1.52  1.31  1.26  0.00  0.00    2.81    6.16    0.00    0.00    0.00
 1990 190     6     0     1     0.0  102.1   16643   81.9   20.2   6.3  15.0  19.7   9.2   4.9   0.1   0.3   0.3   0.0   0.0   0.1   1.0   1.3   1.2   1.2  1.52  1.29  1.22  0.00  0.00    3.30    7.10    0.00    0.00    0.00
 1990 191     7     0     1     0.0  102.6   16642   82.8   19.8   6.4  15.1  19.8   9.4   5.0   0.1   0.3   0.4   0.0   0.0   0.1   0.9   1.3   1.1   1.2  1.52  1.26  1.19  0.00  0.00    3.81    8.01    0.00    0.00    0.00
 1990 192     8     0     1     0.0  103.1   16642   83.7   19.4   6.5  15.2  19.8   9.5   5.0   0.2   0.4   0.4   0.0   0.0   0.1   0.9   1.3   1.1   1.1  1.52  1.23  1.16  0.00  0.00    4.31    8.88    0.00    0.00    0.00
 1990 193     9     0     1     0.0  103.6   16641   84.5   19.0   6.6  15.3  19.9   9.7   5.1   0.2   0.4   0.4   0.0   0.0   0.1   0.8   1.3   1.1   1.1  1.53  1.21  1.12  0.00  0.00    4.81    9.72    0.00    0.00    0.00
 1990 194    10     0     1     0.0  104.1   16641   85.3   18.7   6.7  15.4  19.9   9.8   5.1   0.2   0.4   0.5   0.0   0.0   0.1   0.8   1.3   1.1   1.1  1.53  1.18  1.09  0.00  0.00    5.31   10.54    0.00    0.00    0.00
 1990 195    11     0     1     0.0  104.6   16640   86.2   18.4   6.9  15.5  19.9   9.9   5.2   0.2   0.5   0.5   0.0   0.0   0.1   0.7   1.3   1.0   1.1  1.53  1.16  1.06  0.00  0.00    5.82   11.34    0.00    0.00    0.00
 1990 196    12     0     1     0.0  105.1   16640   87.0   18.1   3.9  14.3  21.7  10.3   5.2   0.2   0.5   0.5   0.0   0.0   0.1   0.7   1.3   1.0   1.0  1.53  1.13  1.03  0.00  0.00    6.35   12.15    0.00    0.00    0.00
 1990 197    13     0     1     0.0  105.7   16639   87.5   18.1   3.9  14.1  21.4  10.8   5.2   0.2   0.5   0.6   0.0   0.0   0.1   0.8   1.3   1.0   1.0  1.54  1.11  1.00  0.00  0.00    6.90   12.72    0.00    0.00    0.00
 1990 198    14     0     1     0.0  106.2   16639   88.2   18.0   4.0  14.0  21.4  11.0   5.3   0.3   0.6   0.6   0.0   0.0   0.1   0.8   1.3   0.9   1.0  1.54  1.09  0.97  0.00  0.00    7.43   13.41    0.00    0.00    0.00
 1990 199    15     0     1     0.0  106.7   16638   88.8   17.8   4.0  14.0  21.4  11.2   5.3   0.3   0.6   0.6   0.0   0.0   0.2   0.9   1.3   0.9   1.0  1.54  1.07  0.95  0.00  0.00    7.93   14.04    0.00    0.00    0.00
 1990 200    16     0     1     0.0  107.2   16638   89.5   17.7   4.2  14.0  21.3  11.3   5.4   0.3   0.6   0.7   0.0   0.0   0.1   0.9   1.3   0.9   0.9  1.54  1.05  0.92  0.00  0.00    8.40   14.68    0.00    0.00    0.00
 1990 201    17     0     1     0.0  107.6   16637   90.2   17.4   4.4  14.0  21.3  11.5   5.4   0.3   0.7   0.7   0.0   0.0   0.1   0.8   1.3   0.9   0.9  1.55  1.03  0.90  0.00  0.00    8.81   15.36    0.00    0.00    0.00
 1990 202    18     0     1     0.0  107.9   16637   90.8   17.2   4.7  14.0  21.3  11.6   5.4   0.3   0.7   0.7   0.0   0.0   0.1   0.8   1.3   0.9   0.9  1.55  1.01  0.87  0.00  0.00    9.17   15.96    0.00    0.00    0.00
 1990 203    19     0     1     0.0  108.3   16637   91.3   16.9   4.9  14.0  21.3  11.7   5.5   0.3   0.7   0.7   0.0   0.0   0.1   0.8   1.2   0.9   0.9  1.55  0.99  0.85  0.00  0.00    9.50   16.52    0.00    0.00    0.00
 1990 204    20     0     1     0.0  108.6   16636   91.9   16.7   5.1  14.0  21.3  11.8   5.5   0.3   0.8   0.8   0.0   0.0   0.1   0.7   1.2   0.8   0.9  1.55  0.97  0.83  0.00  0.00    9.81   17.05    0.00    0.00    0.00
 1990 205    21     0     1     0.0  108.9   16636   92.4   16.5   5.3  14.0  21.3  11.9   5.5   0.4   0.8   0.8   0.0   0.0   0.1   0.7   1.2   0.8   0.9  1.55  0.96  0.81  0.00  0.00   10.11   17.56    0.00    0.00    0.00
 1990 206    22     0     1     0.0  109.2   16636   92.9   16.3   5.5  13.9  21.3  12.0   5.6   0.4   0.8   0.8   0.0   0.0   0.1   0.6   1.2   0.8   0.8  1.55  0.94  0.79  0.00  0.00   10.42   18.07    0.00    0.00    0.00
 1990 207    23     0     1     0.0  109.5   16635   93.4   16.1   5.7  13.9  21.3  12.1   5.6   0.4   0.8   0.8   0.0   0.0   0.1   0.6   1.2   0.8   0.8  1.56  0.92  0.77  0.00  0.00   10.75   18.58    0.00    0.00    0.00
 1990 208    24     0     1     0.0  109.9   16635   93.9   16.0   5.9  13.9  21.3  12.2   5.6   0.4   0.9   0.9   0.0   0.0   0.1   0.6   1.2   0.8   0.8  1.56  0.91  0.75  0.00  0.00   11.11   19.10    0.00    0.00    0.00
 1990 209    25     0     1     0.0  110.2   16635   94.4   15.8   6.1  13.9  21.4  12.2   5.7   0.4   0.9   0.9   0.0   0.0   0.1   0.6   1.2   0.8   0.8  1.56  0.89  0.73  0.00  0.00   11.46   19.62    0.00    0.00    0.00
 1990 210    26     0     1     0.0  110.6   16634   94.9   15.6   6.3  13.9  21.4  12.3   5.7   0.4   0.9   0.9   0.0   0.0   0.1   0.6   1.2   0.8   0.8  1.56  0.88  0.71  0.00  0.00   11.82   20.13    0.00    0.00    0.00
 1990 211    27     0     1     0.0  110.9   16634   95.4   15.5   6.5  13.9  21.5  12.3   5.7   0.5   0.9   0.9   0.0   0.0   0.1   0.5   1.1   0.7   0.8  1.56  0.86  0.69  0.00  0.00   12.18   20.63    0.00    0.00    0.00
 1990 212    28     0     1     0.0  111.3   16634   95.9   15.4   6.7  13.9  21.5  12.4   5.8   0.5   1.0   1.0   0.0   0.0   0.1   0.5   1.1   0.7   0.8  1.56  0.85  0.68  0.00  0.00   12.54   21.13    0.00    0.00    0.00
 1990 213    29     0     1     0.0  111.7   16633   96.4   15.2   6.8  13.9  21.6  12.4   5.8   0.5   1.0   1.0   0.0   0.0   0.1   0.5   1.1   0.7   0.8  1.57  0.84  0.66  0.00  0.00   12.90   21.62    0.00    0.00    0.00
 1990 214    30     0     1     0.0  111.9   16633   96.7   15.1   6.9  13.7  21.6  12.5   5.8   0.5   1.0   1.0   0.0   0.0   0.1   0.5   1.1   0.7   0.7  1.57  0.82  0.64  0.00  0.00   13.29   22.12    0.00    0.00    0.00
 1990 215    31     0     1     0.0  112.3   16632   97.3   15.0   7.1  13.7  21.7  12.5   5.9   0.5   1.0   1.0   0.0   0.0   0.1   0.5   1.1   0.7   0.7  1.57  0.81  0.63  0.00  0.00   13.73   22.66    0.00    0.00    0.00
 1990 216    32     0     1     0.0  112.8   16632   97.8   14.9   7.3  13.8  21.8  12.6   5.9   0.5   1.0   1.0   0.0   0.0   0.1   0.5   1.1   0.7   0.7  1.57  0.80  0.61  0.00  0.00   14.20   23.23    0.00    0.00    0.00
 1990 217    33     0     1     0.0  113.3   16631   98.4   14.8   7.5  13.8  21.9  12.6   5.9   0.5   1.1   1.1   0.0   0.0   0.1   0.5   1.1   0.7   0.7  1.57  0.78  0.60  0.00  0.00   14.71   23.82    0.00    0.00    0.00
 1990 218    34     0     1     0.0  113.8   16631   99.1   14.8   7.7  13.8  22.0  12.7   5.9   0.6   1.1   1.1   0.0   0.0   0.1   0.5   1.1   0.7   0.7  1.58  0.77  0.58  0.00  0.00   15.26   24.46    0.00    0.00    0.00
 1990 219    35     0     1     0.0  114.4   16630   99.7   14.7   7.9  13.9  22.1  12.7   6.0   0.6   1.1   1.1   0.0   0.0   0.1   0.5   1.1   0.7   0.7  1.58  0.76  0.57  0.00  0.00   15.84   25.13    0.00    0.00    0.00
 1990 220    36     0     1     0.0  115.0   16630  100.5   14.6   8.2  13.9  22.2  12.8   6.0   0.6   1.1   1.1   0.0   0.0   0.1   0.5   1.1   0.7   0.7  1.58  0.75  0.55  0.00  0.00   16.47   25.84    0.00    0.00    0.00
 1990 221    37     0     1     0.0  115.6   16629  101.1   14.5   8.4  14.0  22.3  12.8   6.1   0.6   1.2   1.1   0.0   0.0   0.1   0.5   1.1   0.7   0.7  1.58  0.73  0.54  0.00  0.00   17.08   26.55    0.00    0.00    0.00
 1990 222    38     0     1     0.0  116.2   16628  101.8   14.4   8.6  14.0  22.3  12.9   6.1   0.6   1.2   1.1   0.0   0.0   0.1   0.5   1.1   0.7   0.7  1.58  0.72  0.53  0.00  0.00   17.64   27.21    0.00    0.00    0.00
 1990 223    39     0     1     0.0  116.7   16628  102.4   14.3   8.8  14.1  22.4  12.9   6.1   0.7   1.2   1.2   0.0   0.0   0.1   0.5   1.1   0.7   0.7  1.59  0.71  0.51  0.00  0.00   18.20   27.85    0.00    0.00    0.00
 1990 224    40     0     1     0.0  117.2   16627  103.0   14.2   9.0  14.1  22.5  13.0   6.1   0.7   1.2   1.2   0.0   0.0   0.1   0.5   1.1   0.6   0.7  1.59  0.70  0.50  0.00  0.00   18.75   28.49    0.00    0.00    0.00
 1990 225    41     0     1     0.0  117.8   16627  103.6   14.1   9.2  14.2  22.6  13.0   6.2   0.7   1.2   1.2   0.0   0.0   0.1   0.5   1.1   0.6   0.7  1.59  0.69  0.49  0.00  0.00   19.30   29.12    0.00    0.00    0.00
 1990 226    42     0     1     0.0  118.2   16626  104.1   14.1   9.1  14.3  22.7  13.1   6.2   0.7   1.3   1.2   0.0   0.0   0.1   0.4   1.1   0.6   0.6  1.59  0.68  0.48  0.00  0.00   19.88   29.77    0.00    0.00    0.00
 1990 227    43     0     1     0.0  118.5   16626  104.5   14.0   8.5  14.6  22.7  13.1   6.2   0.7   1.3   1.2   0.0   0.0   0.2   0.4   1.1   0.6   0.6  1.59  0.67  0.47  0.00  0.00   20.47   30.38    0.00    0.00    0.00
 1990 228    44     0     1     0.0  118.8   16625  104.9   13.9   8.5  14.6  22.7  13.1   6.3   0.7   1.3   1.2   0.0   0.0   0.1   0.5   1.1   0.6   0.6  1.60  0.66  0.45  0.00  0.00   21.04   31.05    0.00    0.00    0.00
 1990 229    45     0     1     0.0  119.2   16624  105.3   13.9   8.6  14.7  22.8  13.2   6.3   0.8   1.3   1.3   0.0   0.0   0.1   0.5   1.1   0.6   0.6  1.60  0.65  0.44  0.00  0.00   21.58   31.64    0.00    0.00    0.00
 1990 230    46     0     1     0.0  119.5   16624  105.7   13.8   8.6  14.7  22.8  13.2   6.3   0.8   1.3   1.3   0.0   0.0   0.1   0.5   1.1   0.6   0.6  1.60  0.64  0.43  0.00  0.00   22.09   32.20    0.00    0.00    0.00
 1990 231    47     0     1     0.0  119.6   16623  105.9   13.8   8.6  14.7  22.7  13.3   6.4   0.8   1.4   1.3   0.0   0.0   0.1   0.5   1.1   0.6   0.6  1.60  0.64  0.42  0.00  0.00   22.56   32.74    0.00    0.00    0.00
 1990 232    48    45     2     0.0  164.8   16623  128.7   36.1  49.3  14.7  22.7  13.3   6.4   0.8   1.4   1.3   0.0   0.0  40.6   0.5   1.1   0.6   0.6  1.60  0.63  0.42  0.00  0.00   23.06   33.28    0.00    0.00    0.03
 1990 233    49    45     2     0.0  164.9   16622  144.9   20.0  78.1  14.7  22.7  13.3   6.4   0.8   1.4   1.3   0.0   0.0  11.5   0.5   1.1   0.6   0.6  1.60  0.62  0.41  0.00  0.00   23.56   49.82    0.00    0.00    0.06
 1990 234    50    45     2     0.0  165.2   16622  149.6   15.6  85.8  14.8  22.7  13.4   6.4   0.8   1.4   1.3   0.0   0.0   3.8   0.5   1.1   0.6   0.6  1.61  0.61  0.40  0.00  0.00   24.05   54.60    0.00    0.00    0.09
 1990 235    51    45     2     0.0  165.3   16622  151.0   14.3  87.9  14.8  22.7  13.4   6.5   0.9   1.4   1.3   0.0   0.0   1.4   0.5   1.1   0.6   0.6  1.61  0.60  0.39  0.00  0.00   24.50   56.38    0.00    0.00    0.11
 1990 236    52    45     2     0.0  165.5   16621  151.8   13.8  88.7  14.8  22.8  13.4   6.5   0.9   1.5   1.3   0.0   0.0   0.6   0.5   1.1   0.6   0.6  1.61  0.60  0.38  0.00  0.00   24.94   57.30    0.00    0.00    0.13
 1990 237    53    45     2     0.0  165.9   16621  152.4   13.5  89.1  14.9  22.8  13.5   6.5   0.9   1.5   1.4   0.0   0.0   0.3   0.4   1.1   0.6   0.6  1.61  0.59  0.37  0.00  0.00   25.37   57.94    0.00    0.00    0.16
 1990 238    54    45     2     0.0  166.1   16620  152.7   13.4  89.1  14.9  22.8  13.5   6.5   0.9   1.5   1.4   0.0   0.0   0.1   0.4   1.1   0.6   0.6  1.61  0.58  0.37  0.00  0.00   25.81   58.48    0.00    0.00    0.18
 1990 239    55    45     2     0.0  166.1   16620  152.8   13.3  89.0  14.9  22.8  13.5   6.6   0.9   1.5   1.4   0.0   0.0   0.1   0.4   1.1   0.6   0.6  1.61  0.58  0.36  0.00  0.00   26.28   59.01    0.00    0.00    0.20
 1990 240    56    45     2     0.0  165.9   16619  152.7   13.2  88.6  14.9  22.7  13.6   6.6   0.9   1.5   1.4   0.0   0.0   0.0   0.4   1.0   0.6   0.6  1.61  0.57  0.35  0.00  0.00   26.76   59.52    0.00    0.00    0.24
 1990 241    57    45     2     0.0  166.1   16619  152.9   13.2  88.4  14.9  22.7  13.6   6.6   1.0   1.5   1.4   0.0   0.0   0.1   0.4   1.0   0.6   0.6  1.62  0.57  0.34  0.00  0.00   27.22   59.99    0.00    0.00    0.25
 1990 242    58    45     2     0.0  166.5   16618  153.3   13.2  88.5  14.9  22.8  13.6   6.6   1.0   1.6   1.4   0.0   0.0   0.1   0.4   1.0   0.6   0.6  1.62  0.56  0.34  0.00  0.00   27.66   60.46    0.00    0.00    0.25
 1990 243    59    45     2     0.0  166.9   16618  153.7   13.1  88.6  15.0  22.8  13.6   6.7   1.0   1.6   1.4   0.0   0.0   0.1   0.4   1.0   0.6   0.6  1.62  0.55  0.33  0.00  0.00   28.06   60.91    0.00    0.00    0.25
 1990 244    60    45     2     0.0  167.2   16618  154.1   13.1  88.6  15.1  22.9  13.7   6.7   1.0   1.6   1.4   0.0   0.0   0.1   0.4   1.0   0.6   0.6  1.62  0.55  0.33  0.00  0.00   28.41   61.31    0.00    0.00    0.25
 1990 245    61    45     2     0.0  167.5   16617  154.4   13.0  88.7  15.1  22.9  13.7   6.7   1.0   1.6   1.4   0.0   0.0   0.1   0.4   1.0   0.6   0.6  1.62  0.54  0.32  0.00  0.00   28.73   61.69    0.00    0.00    0.26
 1990 246    62    45     2     0.0  167.8   16617  154.8   13.0  88.8  15.2  22.9  13.7   6.7   1.0   1.6   1.5   0.0   0.0   0.1   0.4   1.0   0.6   0.6  1.62  0.54  0.31  0.00  0.00   29.06   62.07    0.00    0.00    0.26
 1990 247    63    45     2     0.0  168.1   16617  155.2   12.9  88.9  15.2  23.0  13.7   6.7   1.1   1.6   1.5   0.0   0.0   0.1   0.4   1.0   0.6   0.6  1.62  0.53  0.31  0.00  0.00   29.39   62.45    0.00    0.00    0.26
 1990 248    64    45     2     0.0  168.4   16616  155.5   12.9  88.9  15.2  23.0  13.8   6.8   1.1   1.6   1.5   0.0   0.0   0.1   0.4   1.0   0.6   0.6  1.62  0.53  0.30  0.00  0.00   29.73   62.83    0.00    0.00    0.26
 1990 249    65    45     2     0.0  168.5   16616  155.7   12.8  44.3  31.0  27.4  13.8   6.8   1.1   1.7   1.5   0.0   0.0   0.1   0.4   1.0   0.6   0.6  1.62  0.52  0.30  0.00  0.00   30.09   63.23    0.00    0.00    0.27
 1990 250    66    45     2     0.0  168.9   16616  156.0   12.9  39.8  31.4  28.4  14.0   6.8   1.1   1.7   1.5   0.0   0.0   0.1   0.4   1.0   0.6   0.6  1.63  0.52  0.29  0.00  0.00   30.52   63.58    0.00    0.00    0.27
 1990 251    67    45     2     0.0  169.3   16615  156.2   13.1  39.8  30.9  28.2  14.5   6.8   1.1   1.7   1.5   0.0   0.0   0.2   0.5   1.1   0.6   0.6  1.63  0.51  0.29  0.00  0.00   30.97   63.85    0.00    0.00    0.27
 1990 252    68    45     2     0.0  169.7   16615  156.6   13.1  39.9  30.6  28.2  14.8   6.9   1.1   1.7   1.5   0.0   0.0   0.1   0.6   1.1   0.6   0.6  1.63  0.51  0.28  0.00  0.00   31.42   64.28    0.00    0.00    0.27
 1990 253    69    45     2     0.0  170.1   16614  157.0   13.1  22.3  30.4  29.9  17.7   7.8   1.2   1.7   1.5   0.0   0.0   0.1   0.6   1.1   0.6   0.6  1.63  0.51  0.28  0.00  0.00   31.91   64.80    0.00    0.00    0.28
 1990 254    70    45     2     0.0  170.2   16614  156.9   13.3  22.2  29.9  29.4  17.4   8.4   1.4   1.7   1.5   0.0   0.0   0.1   0.6   1.1   0.6   0.6  1.63  0.50  0.27  0.00  0.00   32.43   65.08    0.00    0.00    0.28
 1990 255    71    45     2     0.0  170.2   16613  156.7   13.6  22.5  29.5  29.0  17.1   8.7   1.5   1.8   1.5   0.0   0.0   0.1   0.7   1.2   0.6   0.6  1.63  0.50  0.27  0.00  0.00   32.95   65.33    0.00    0.00    0.28
 1990 256    72    45     2     0.0  170.3   16613  156.5   13.8  23.2  29.1  28.8  17.0   8.8   1.6   1.8   1.6   0.0   0.0   0.1   0.7   1.3   0.6   0.6  1.64  0.50  0.26  0.00  0.00   33.44   65.62    0.00    0.00    0.29
 1990 257    73    45     2     0.1  170.4   16612  156.6   13.8  24.0  28.7  28.8  16.9   8.9   1.6   1.8   1.6   0.0   0.0   0.1   0.6   1.3   0.7   0.6  1.66  0.51  0.27  0.00  0.00   33.93   66.01    0.00    0.00    0.29
 1990 258    74    45     2     0.1  170.1   16612  156.2   13.9  24.6  28.3  28.6  16.8   8.9   1.6   1.8   1.6   0.0   0.0   0.1   0.6   1.2   0.7   0.6  1.67  0.51  0.27  0.00  0.00   34.38   66.37    0.02    0.00    0.29
 1990 259    75    45     2     0.1  169.8   16611  155.8   14.0  25.2  27.9  28.4  16.8   8.9   1.6   1.8   1.6   0.0   0.0   0.1   0.6   1.2   0.7   0.7  1.68  0.52  0.27  0.00  0.00   34.81   66.71    0.02    0.00    0.29
 1990 260    76    45     2     0.1  168.9   16611  154.9   14.1  25.5  27.4  28.0  16.8   8.9   1.6   1.8   1.6   0.0   0.0   0.1   0.6   1.2   0.7   0.7  1.69  0.52  0.27  0.00  0.00   35.28   67.07    0.02    0.00    0.30
 1990 261    77    45     2     0.1  168.7   16610  154.5   14.1  25.9  27.1  27.8  16.9   8.9   1.6   1.8   1.6   0.0   0.0   0.1   0.6   1.2   0.7   0.7  1.71  0.53  0.27  0.00  0.00   35.76   67.50    0.02    0.00    0.30
 1990 262    78    45     2     0.1  168.7   16610  154.6   14.1  25.9  27.2  27.7  16.9   9.0   1.6   1.8   1.6   0.0   0.0   0.1   0.5   1.2   0.7   0.7  1.72  0.53  0.27  0.00  0.00   36.23   67.95    0.02    0.00    0.30
 1990 263    79    45     2     0.1  168.9   16609  154.8   14.2  26.3  27.1  27.7  16.9   9.0   1.6   1.8   1.6   0.0   0.0   0.1   0.5   1.2   0.7   0.7  1.73  0.54  0.27  0.00  0.00   36.69   68.39    0.02    0.00    0.31
 1990 264    80    45     2     0.1  168.8   16609  154.6   14.2  25.9  27.3  27.5  16.9   9.0   1.6   1.8   1.6   0.0   0.0   0.1   0.5   1.2   0.7   0.7  1.74  0.54  0.27  0.00  0.00   37.16   68.84    0.02    0.00    0.31
 1990 265    81    45     2     0.1  168.0   16608  153.9   14.2  24.4  27.7  27.2  16.9   9.1   1.7   1.8   1.6   0.0   0.0   0.2   0.5   1.2   0.7   0.7  1.74  0.55  0.27  0.00  0.00   37.62   69.29    0.02    0.00    0.31
 1990 266    82    45     2     0.1  167.0   16608  152.9   14.1  24.2  27.4  26.8  16.9   9.1   1.7   1.8   1.6   0.0   0.0   0.1   0.5   1.1   0.7   0.7  1.74  0.55  0.27  0.00  0.00   38.09   69.80    0.02    0.00    0.31
 1990 267    83    45     2     0.1  166.9   16608  152.9   14.1  24.4  27.3  26.7  16.9   9.1   1.7   1.8   1.6   0.0   0.0   0.1   0.5   1.1   0.7   0.7  1.74  0.56  0.27  0.00  0.00   38.55   70.28    0.02    0.00    0.32
 1990 268    84    45     2     0.1  166.0   16607  151.9   14.0  24.4  26.9  26.3  16.9   9.1   1.7   1.8   1.6   0.0   0.0   0.1   0.5   1.1   0.7   0.6  1.74  0.56  0.27  0.00  0.00   39.01   70.76    0.02    0.00    0.32
 1990 269    85    45     2     0.1  166.0   16607  151.9   14.0  24.6  26.8  26.2  16.9   9.2   1.7   1.8   1.6   0.0   0.0   0.1   0.5   1.1   0.7   0.6  1.74  0.57  0.28  0.00  0.00   39.47   71.22    0.02    0.00    0.32
 1990 270    86    45     2     0.1  165.5   16606  151.5   14.0  24.7  26.6  26.0  16.8   9.2   1.7   1.8   1.6   0.0   0.0   0.1   0.5   1.1   0.7   0.6  1.74  0.57  0.28  0.00  0.00   39.93   71.69    0.02    0.00    0.33
 1990 271    87    45     2     0.1  164.0   16606  150.1   14.0  24.6  26.1  25.6  16.7   9.2   1.8   1.8   1.6   0.0   0.0   0.1   0.5   1.1   0.6   0.6  1.74  0.58  0.28  0.00  0.00   40.42   72.19    0.02    0.00    0.33
 1990 272    88    45     2     0.1  163.1   16605  149.2   13.9  24.6  25.8  25.2  16.7   9.3   1.8   1.8   1.6   0.0   0.0   0.1   0.5   1.1   0.6   0.6  1.74  0.58  0.28  0.00  0.00   40.95   72.72    0.02    0.00    0.33
 1990 273    89    45     2     0.1  161.6   16605  147.7   13.9  24.5  25.3  24.7  16.6   9.3   1.8   1.8   1.6   0.0   0.0   0.1   0.5   1.1   0.6   0.6  1.74  0.58  0.28  0.00  0.00   41.52   73.29    0.02    0.00    0.34
 1990 274    90    45     2     0.1  159.3   16604  145.5   13.9  24.1  24.7  24.1  16.4   9.3   1.8   1.8   1.6   0.0   0.0   0.1   0.5   1.1   0.6   0.6  1.74  0.59  0.28  0.00  0.00   42.12   73.90    0.02    0.00    0.34
 1990 275    91    45     2     0.1  156.6   16603  142.8   13.8  23.6  23.9  23.3  16.2   9.3   1.8   1.9   1.6   0.0   0.0   0.1   0.5   1.1   0.6   0.6  1.74  0.59  0.28  0.00  0.00   42.75   74.55    0.02    0.00    0.34
 1990 276    92    45     2     0.1  154.5   16603  140.7   13.8  21.9  24.0  22.7  16.0   9.3   1.9   1.9   1.6   0.0   0.0   0.1   0.4   1.0   0.6   0.6  1.74  0.60  0.28  0.00  0.00   43.36   75.18    0.02    0.00    0.34
 1990 277    93    45     2     0.1  152.8   16602  139.0   13.7   9.3  21.8  26.6  16.6   9.3   1.9   1.9   1.6   0.0   0.0   0.1   0.4   1.0   0.6   0.6  1.74  0.60  0.28  0.00  0.00   44.00   75.83    0.02    0.00    0.35
 1990 278    94    45     2     0.1  151.8   16601  137.9   14.0   7.7  20.4  26.0  17.5   9.5   1.9   1.9   1.6   0.0   0.0   0.1   0.5   1.1   0.6   0.6  1.74  0.61  0.28  0.00  0.00   44.67   76.20    0.02    0.00    0.37
 1990 279    95    45     2     0.3  150.0   16601  135.7   14.4   7.5  19.6  25.0  17.1   9.8   2.1   1.9   1.6   0.0   0.0   0.2   0.6   1.2   0.6   0.6  1.74  0.61  0.28  0.00  0.00   45.31   76.40    0.02    0.00    0.39
 1990 280    96    45     2     0.3  148.7   16600  134.0   14.7   6.9  19.1  24.5  17.0   9.8   2.1   1.9   1.6   0.0   0.0   0.2   0.7   1.3   0.7   0.6  1.76  0.62  0.28  0.00  0.00   45.89   76.57    0.02    0.00    0.42
 1990 281    97    45     2     0.4  147.6   16600  132.6   15.1   6.7  18.6  23.9  16.7   9.9   2.3   1.9   1.7   0.0   0.0   0.2   0.8   1.3   0.7   0.7  1.77  0.62  0.28  0.00  0.00   46.45   76.73    0.02    0.00    0.45
 1990 282    98    45     2     0.4  144.9   16599  129.7   15.2   6.7  17.8  23.0  16.5   9.8   2.3   1.9   1.7   0.0   0.0   0.1   0.8   1.4   0.7   0.7  1.78  0.63  0.28  0.00  0.00   46.98   76.98    0.05    0.00    0.49
 1990 283    99    45     2     0.4  141.1   16599  126.0   15.1   6.7  17.0  21.9  16.2   9.6   2.3   1.9   1.7   0.0   0.0   0.1   0.8   1.3   0.7   0.7  1.80  0.63  0.29  0.00  0.00   47.52   77.51    0.06    0.00    0.51
 1990 284   100    45     2     0.4  137.4   16598  122.4   15.0   6.5  16.2  20.8  15.9   9.5   2.3   1.9   1.7   0.0   0.0   0.1   0.7   1.2   0.7   0.7  1.81  0.63  0.29  0.00  0.00   48.08   78.10    0.06    0.00    0.52
 1990 285   101    45     2     0.4  135.8   16597  120.9   14.9   6.1  16.1  20.3  15.7   9.5   2.3   1.9   1.7   0.0   0.0   0.2   0.6   1.2   0.7   0.7  1.82  0.64  0.29  0.00  0.00   48.68   78.65    0.06    0.00    0.54
 1990 286   102    45     2     0.4  131.3   16597  116.5   14.8   5.8  15.2  19.0  15.4   9.3   2.3   1.9   1.7   0.0   0.0   0.1   0.6   1.2   0.7   0.7  1.83  0.64  0.29  0.00  0.00   49.27   79.26    0.06    0.00    0.58
 1990 287   103    55     3     0.4  138.0   16596  118.4   19.7  14.7  14.5  18.1  15.1   9.1   2.3   1.9   1.7   0.0   0.0   9.0   0.6   1.1   0.6   0.7  1.84  0.65  0.29  0.00  0.00   49.89   79.84    0.06    0.00    0.64
 1990 288   104    55     3     0.4  134.5   16596  119.9   14.6  22.6  13.8  17.2  14.8   9.0   2.3   1.9   1.7   0.0   0.0   0.0   0.6   1.1   0.6   0.6  1.85  0.65  0.29  0.00  0.00   50.50   85.11    0.06    0.00    0.69
 1990 289   105    55     3     0.4  131.2   16595  116.6   14.6  21.6  13.2  16.4  14.5   8.9   2.3   1.9   1.7   0.0   0.0   0.1   0.5   1.1   0.6   0.6  1.86  0.65  0.29  0.00  0.00   51.07   85.59    0.06    0.00    0.69
 1990 290   106    55     3     0.4  128.2   16595  113.6   14.5  20.7  12.7  15.7  14.3   8.8   2.3   2.0   1.7   0.0   0.0   0.1   0.5   1.0   0.6   0.6  1.87  0.66  0.29  0.00  0.00   51.62   86.11    0.07    0.00    0.71
 1990 291   107    55     3     0.4  124.5   16594  110.0   14.5  19.7  12.0  14.9  14.0   8.6   2.3   2.0   1.7   0.0   0.0   0.1   0.5   1.0   0.6   0.6  1.87  0.66  0.29  0.00  0.00   52.17   86.63    0.07    0.00    0.73
 1990 292   108    55     3     0.4  119.7   16593  105.5   14.3  18.7  11.1  13.7  13.6   8.4   2.3   2.0   1.7   0.0   0.0   0.1   0.5   1.0   0.6   0.6  1.85  0.67  0.29  0.00  0.00   52.71   87.20    0.07    0.00    0.74
 1990 293   109    55     3     0.4  116.2   16593  102.1   14.1   8.2  13.3  14.3  13.3   8.2   2.3   2.0   1.7   0.0   0.0   0.1   0.4   0.9   0.6   0.6  1.84  0.67  0.29  0.00  0.00   53.24   87.75    0.07    0.00    0.76
 1990 294   110    55     3     0.4  111.6   16592   97.5   14.1   7.6  12.2  13.3  12.8   8.0   2.2   2.0   1.7   0.0   0.0   0.2   0.5   0.9   0.6   0.6  1.81  0.66  0.29  0.00  0.00   53.88   88.21    0.07    0.00    0.77
 1990 295   111    55     3     0.4  106.6   16592   92.8   13.8   7.1  11.1  12.2  12.4   7.7   2.2   2.0   1.7   0.0   0.0   0.1   0.5   0.9   0.6   0.6  1.79  0.65  0.29  0.00  0.00   54.54   88.91    0.07    0.00    0.80
 1990 296   112    55     3     0.4  100.9   16591   87.3   13.6   6.3   9.9  10.8  11.9   7.5   2.2   2.0   1.7   0.0   0.0   0.1   0.5   0.9   0.6   0.6  1.76  0.64  0.29  0.00  0.00   55.21   89.56    0.07    0.00    0.81
 1990 297   113    55     3     0.4   97.0   16590   83.5   13.4   5.8   9.1  10.0  11.6   7.3   2.2   2.1   1.7   0.0   0.0   0.1   0.5   0.9   0.6   0.6  1.73  0.64  0.29  0.00  0.00   55.84   90.19    0.07    0.00    0.84
 1990 298   114    55     3     0.4   92.8   16590   79.5   13.2   5.3   8.2   9.0  11.2   7.0   2.1   2.1   1.7   0.0   0.0   0.1   0.5   0.8   0.5   0.6  1.70  0.63  0.29  0.00  0.00   56.45   90.79    0.07    0.00    0.86
 1990 299   115    55     3     0.4   88.2   16589   75.2   13.0   4.8   7.4   8.1  10.7   6.8   2.1   2.1   1.7   0.0   0.0   0.1   0.5   0.8   0.5   0.6  1.67  0.62  0.30  0.00  0.00   57.04   91.39    0.07    0.00    0.88
 1990 300   116    55     3     0.4   80.1   16589   67.6   12.5   3.3   6.2   6.4   9.9   6.3   2.0   2.1   1.7   0.0   0.0   0.1   0.5   0.8   0.5   0.6  1.61  0.61  0.29  0.00  0.00   57.62   92.01    0.07    0.00    0.90
 1990 301   117    55     3     0.4   74.5   16588   62.2   12.3   0.5   2.3   4.6   8.3   8.1   2.7   2.2   1.8   0.0   0.0   0.2   0.5   0.7   0.5   0.5  1.56  0.60  0.28  0.00  0.00   58.21   92.56    0.07    0.00    0.91
 1990 302   118    55     3     1.1   67.9   16588   55.7   12.2   0.3   1.4   3.0   6.2   7.1   3.2   2.5   2.0   0.0   0.0   0.1   0.6   0.8   0.6   0.6  1.47  0.61  0.29  0.00  0.00   58.89   92.76    0.07    0.00    0.94
 1990 303   119    55     3     2.0   65.1   16587   52.5   12.6   0.3   1.2   2.7   5.6   6.5   3.1   2.5   2.0   0.0   0.0   0.2   0.7   0.9   0.6   0.6  1.46  0.62  0.29  0.00  0.00   59.57   92.86    0.07    0.00    0.95
 1990 304   120    55     3     2.5   59.7   16586   47.1   12.6   0.3   1.0   2.0   4.8   5.7   2.9   2.5   2.0   0.0   0.0   0.2   0.7   0.9   0.6   0.6  1.40  0.62  0.29  0.00  0.00   60.26   93.02    0.07    0.00    0.97
 1990 305   121    55     3     2.7   54.1   16586   42.2   11.9   0.5   0.8   1.4   4.1   5.0   2.6   2.5   2.0   0.0   0.0   0.1   0.6   0.8   0.6   0.6  1.33  0.63  0.29  0.00  0.00   60.93   93.60    0.07    0.00    0.99
 1990 306   122    55     3     3.8   46.0   16585   34.8   11.2   0.0   0.2   0.4   2.1   3.6   2.7   2.7   2.3   0.0   0.0   0.1   0.5   0.7   0.6   0.6  1.23  0.63  0.29  0.00  0.00   61.58   94.12    0.08    0.00    1.00
 1990 307   123    55     3     4.1   42.3   16584   31.1   11.3   0.0   0.2   0.3   1.7   2.9   2.4   2.7   2.3   0.0   0.0   0.2   0.6   0.7   0.6   0.6  1.16  0.64  0.29  0.00  0.00   62.26   94.22    0.14    0.00    1.00
 1990 308   124    55     3     5.0   38.5   16584   27.3   11.2   0.1   0.2   0.3   1.3   2.3   2.0   2.6   2.2   0.0   0.0   0.3   0.7   0.7   0.6   0.6  1.09  0.65  0.30  0.00  0.00   62.97   94.36    0.20    0.00    1.00
 1990 309   125    55     3     5.4   34.9   16583   24.2   10.7   0.5   0.3   0.3   0.9   1.8   1.6   2.5   2.2   0.0   0.0   0.1   0.7   0.7   0.6   0.6  1.00  0.65  0.30  0.00  0.00   63.66   94.71    0.23    0.00    1.00
 1990 310   126    55     3     5.6   32.0   16582   22.0   10.0   0.3   0.4   0.3   0.7   1.4   1.3   2.5   2.2   0.0   0.0   0.1   0.5   0.6   0.6   0.6  0.93  0.66  0.30  0.00  0.00   64.34   95.26    0.24    0.00    1.01
 1990 311   127    55     3     5.6   29.6   16582   20.0    9.6   0.4   0.4   0.3   0.6   1.1   1.1   2.4   2.2   0.0   0.0   0.1   0.5   0.6   0.6   0.6  0.86  0.66  0.30  0.00  0.00   65.00   95.78    0.25    0.00    1.01
 1990 312   128    55     3     5.7   27.4   16581   18.1    9.3   0.4   0.4   0.3   0.5   0.9   0.9   2.3   2.2   0.0   0.0   0.1   0.5   0.6   0.6   0.6  0.81  0.66  0.30  0.00  0.00   65.60   96.23    0.25    0.00    1.01
 1990 313   129    55     3     5.7   25.5   16581   16.5    9.0   0.4   0.3   0.3   0.4   0.7   0.8   2.1   2.2   0.0   0.0   0.1   0.5   0.6   0.5   0.5  0.76  0.65  0.30  0.00  0.00   66.16   96.65    0.26    0.00    1.01
 1990 314   130    55     3     5.7   23.8   16580   15.0    8.8   0.4   0.4   0.3   0.3   0.6   0.6   1.9   2.2   0.0   0.0   0.1   0.5   0.6   0.5   0.5  0.73  0.63  0.30  0.00  0.00   66.74   97.07    0.26    0.00    1.01
 1990 315   131    55     3     5.7   22.4   16580   13.8    8.7   0.4   0.4   0.3   0.3   0.5   0.5   1.6   2.2   0.0   0.0   0.1   0.5   0.6   0.5   0.5  0.70  0.62  0.30  0.00  0.00   67.36   97.52    0.26    0.00    1.02
 1990 316   132    55     3     5.7   21.3   16579   12.8    8.5   0.3   0.4   0.3   0.3   0.4   0.4   1.4   2.2   0.0   0.0   0.1   0.5   0.6   0.5   0.5  0.67  0.60  0.30  0.00  0.00   67.98   98.00    0.26    0.00    1.02
 1990 317   133    55     3     5.7   20.4   16578   12.0    8.4   0.1   0.3   0.3   0.3   0.4   0.4   1.3   2.2   0.0   0.0   0.2   0.5   0.6   0.5   0.5  0.65  0.58  0.30  0.00  0.00   68.64   98.46    0.26    0.00    1.02
 1990 318   134    55     3     5.7   19.7   16578   11.2    8.6   0.4   0.3   0.3   0.3   0.3   0.3   1.1   2.2   0.0   0.0   0.1   0.6   0.7   0.6   0.5  0.64  0.56  0.31  0.00  0.00   69.32   98.80    0.26    0.00    1.02
 1990 319   135    55     3     5.7   19.3   16577   10.6    8.8   0.1   0.3   0.3   0.2   0.3   0.3   1.0   2.2   0.0   0.0   0.2   0.7   0.7   0.6   0.5  0.63  0.55  0.31  0.00  0.00   70.03   99.01    0.26    0.00    1.02
 1990 320   136    55     3     5.8   19.0   16576   10.0    9.0   0.2   0.3   0.3   0.2   0.2   0.3   0.9   2.2   0.0   0.0   0.3   0.7   0.8   0.6   0.5  0.62  0.54  0.31  0.00  0.00   70.74   99.18    0.26    0.00    1.03
 1990 321   137    55     3     5.8   18.9   16576    9.9    9.0   0.3   0.3   0.3   0.3   0.3   0.3   0.8   2.2   0.0   0.0   0.4   0.7   0.8   0.6   0.6  0.61  0.53  0.31  0.00  0.00   71.46   99.42    0.26    0.00    1.03
 1990 322   138    55     3     5.8   18.7   16575   10.0    8.6   0.7   0.3   0.3   0.3   0.3   0.3   0.7   2.2   0.0   0.0   0.1   0.7   0.7   0.6   0.5  0.60  0.52  0.31  0.00  0.00   72.20   99.94    0.26    0.00    1.03
 1990 323   139    55     3     6.4   17.6   16574    9.4    8.2   0.0   0.3   0.3   0.3   0.3   0.3   0.6   2.0   0.0   0.0   0.1   0.5   0.6   0.6   0.5  0.60  0.51  0.31  0.00  0.00   72.94  100.57    0.26    0.00    1.03
 1990 324   140    55     3     6.9   17.1   16574    8.3    8.7   0.0   0.2   0.3   0.3   0.3   0.3   0.5   1.9   0.0   0.0   0.3   0.6   0.7   0.6   0.6  0.60  0.52  0.31  0.00  0.00   73.72  100.68    0.28    0.00    1.03
 1990 325   141    55     3     7.6   16.7   16573    7.6    9.1   0.1   0.2   0.3   0.3   0.2   0.2   0.4   1.6   0.0   0.0   0.4   0.7   0.8   0.6   0.6  0.61  0.52  0.31  0.00  0.00   74.51  100.81    0.29    0.00    1.04
 1990 326   142    55     3     7.9   16.6   16572    7.6    9.0   0.6   0.3   0.3   0.3   0.3   0.2   0.4   1.6   0.0   0.0   0.0   0.7   0.8   0.6   0.6  0.61  0.53  0.31  0.00  0.00   75.33  101.28    0.29    0.00    1.04
 1990 327   143    55     3     7.9   16.3   16571    7.7    8.6   0.3   0.5   0.3   0.3   0.3   0.3   0.3   1.5   0.0   0.0   0.2   0.5   0.8   0.6   0.6  0.61  0.53  0.32  0.00  0.00   76.18  101.85    0.29    0.00    1.04
 1990 328   144    55     3     8.0   16.0   16571    7.8    8.2   0.6   0.4   0.4   0.3   0.3   0.3   0.3   1.5   0.0   0.0   0.1   0.5   0.6   0.6   0.6  0.60  0.52  0.32  0.00  0.00   77.02  102.63    0.30    0.00    1.04
 1990 329   145    55     3     8.3   15.2   16570    7.0    8.1   0.0   0.3   0.3   0.3   0.3   0.3   0.3   1.3   0.0   0.0   0.1   0.5   0.6   0.6   0.5  0.60  0.51  0.32  0.00  0.00   77.84  103.26    0.30    0.00    1.04
 1990 330   146    55     3     8.8   15.0   16569    6.2    8.8   0.0   0.3   0.3   0.3   0.3   0.3   0.3   1.1   0.0   0.0   0.3   0.6   0.7   0.6   0.6  0.61  0.52  0.32  0.00  0.00   78.67  103.37    0.30    0.00    1.04
 1990 331   147    55     3     9.0   15.6   16569    6.4    9.2   0.5   0.3   0.3   0.3   0.3   0.3   0.3   1.1   0.0   0.0   0.0   0.7   0.8   0.6   0.6  0.63  0.52  0.32  0.00  0.00   79.48  103.75    0.31    0.00    1.05
 1990 332   148    55     3     9.0   16.3   16568    6.9    9.4   0.5   0.5   0.4   0.3   0.3   0.3   0.3   1.1   0.0   0.0   0.1   0.7   0.9   0.7   0.6  0.65  0.53  0.32  0.00  0.00   80.26  104.29    0.31    0.00    1.05
 1990 333   149    55     3     9.0   17.1   16567    7.6    9.4   0.7   0.7   0.5   0.3   0.3   0.3   0.3   1.1   0.0   0.0   0.1   0.6   0.9   0.7   0.6  0.66  0.53  0.32  0.00  0.00   81.02  105.04    0.31    0.00    1.05
 1990 334   150    55     3     9.0   15.2   16566    6.5    8.7   0.3   0.5   0.4   0.3   0.3   0.3   0.3   1.0   0.0   0.0   0.1   0.5   0.7   0.6   0.6  0.65  0.52  0.32  0.00  0.00   81.79  105.75    0.31    0.00    1.05
 1990 335   151    55     3     9.0   15.9   16566    6.9    9.0   0.2   0.4   0.5   0.4   0.4   0.3   0.3   1.0   0.0   0.0   0.2   0.6   0.7   0.6   0.6  0.66  0.51  0.32  0.00  0.00   82.49  106.12    0.31    0.00    1.05
 1990 336   152    55     3     9.1   15.2   16565    6.0    9.2   0.1   0.2   0.3   0.3   0.3   0.3   0.3   0.9   0.0   0.0   0.3   0.7   0.8   0.6   0.6  0.64  0.51  0.32  0.00  0.00   83.21  106.30    0.31    0.00    1.06
 1990 337   153    55     3     9.5   14.6   16565    5.2    9.4   0.2   0.2   0.3   0.3   0.3   0.2   0.3   0.8   0.0   0.0   0.4   0.7   0.8   0.7   0.6  0.65  0.51  0.32  0.00  0.00   83.90  106.42    0.31    0.00    1.06
 1990 338   154    55     3     9.6   14.4   16564    5.3    9.2   0.6   0.2   0.3   0.3   0.3   0.2   0.2   0.7   0.0   0.0   0.1   0.7   0.8   0.6   0.6  0.64  0.52  0.32  0.00  0.00   84.60  106.80    0.32    0.00    1.06
 1990 339   155    55     3     9.7   14.0   16563    5.1    8.9   0.0   0.3   0.3   0.3   0.3   0.3   0.3   0.6   0.0   0.0   0.1   0.7   0.7   0.6   0.6  0.63  0.52  0.33  0.00  0.00   85.30  107.12    0.32    0.00    1.06
 1990 340   156    55     3     9.9   13.8   16563    4.6    9.2   0.0   0.3   0.3   0.3   0.2   0.2   0.2   0.5   0.0   0.0   0.2   0.7   0.7   0.7   0.6  0.63  0.53  0.33  0.00  0.00   86.03  107.24    0.33    0.00    1.07
 1990 341   157    55     3    10.0   13.8   16562    4.5    9.3   0.1   0.3   0.3   0.3   0.3   0.2   0.2   0.5   0.0   0.0   0.3   0.7   0.7   0.7   0.6  0.63  0.53  0.33  0.00  0.00   86.78  107.41    0.33    0.00    1.07
 1990 342   158    55     3    10.0   13.8   16561    5.0    8.8   0.5   0.5   0.3   0.3   0.3   0.2   0.2   0.4   0.0   0.0   0.1   0.5   0.7   0.6   0.6  0.63  0.53  0.33  0.00  0.00   87.55  108.05    0.33    0.00    1.07
 1990 343   159    55     3    10.0   13.5   16561    5.0    8.5   0.3   0.4   0.3   0.3   0.3   0.3   0.3   0.4   0.0   0.0   0.1   0.5   0.6   0.6   0.6  0.62  0.53  0.33  0.00  0.00   88.32  108.64    0.33    0.00    1.07
 1990 344   160    55     3    10.0   13.3   16560    4.9    8.3   0.4   0.4   0.3   0.3   0.3   0.3   0.3   0.4   0.0   0.0   0.1   0.5   0.6   0.6   0.6  0.61  0.52  0.33  0.00  0.00   89.06  109.22    0.33    0.00    1.07
 1990 345   161    55     3    10.0   13.1   16559    4.8    8.2   0.4   0.4   0.3   0.3   0.3   0.3   0.3   0.4   0.0   0.0   0.1   0.5   0.6   0.6   0.6  0.61  0.51  0.33  0.00  0.00   89.77  109.75    0.33    0.00    1.07
 1990 346   162    55     3    10.0   12.9   16559    4.7    8.2   0.4   0.4   0.3   0.3   0.3   0.3   0.3   0.4   0.0   0.0   0.1   0.5   0.6   0.6   0.6  0.60  0.51  0.33  0.00  0.00   90.48  110.27    0.33    0.00    1.08
 1990 347   163    55     3    10.0   12.8   16558    4.7    8.1   0.4   0.4   0.3   0.3   0.3   0.3   0.3   0.3   0.0   0.0   0.1   0.5   0.6   0.5   0.5  0.60  0.50  0.33  0.00  0.00   91.18  110.78    0.33    0.00    1.08
 1990 348   164    55     3    10.0   12.7   16558    4.6    8.1   0.4   0.4   0.3   0.3   0.3   0.3   0.3   0.3   0.0   0.0   0.1   0.5   0.6   0.5   0.5  0.60  0.50  0.32  0.00  0.00   91.85  111.29    0.33    0.00    1.08
 1990 349   165    55     3    10.0   12.7   16557    4.6    8.0   0.4   0.4   0.3   0.3   0.3   0.3   0.3   0.3   0.0   0.0   0.1   0.5   0.6   0.5   0.5  0.60  0.50  0.32  0.00  0.00   92.55  111.81    0.33    0.00    1.08
 1990 350   166    55     3    10.0   12.6   16557    4.6    8.0   0.4   0.4   0.3   0.3   0.3   0.3   0.3   0.3   0.0   0.0   0.1   0.5   0.6   0.5   0.5  0.59  0.49  0.31  0.00  0.00   93.27  112.35    0.33    0.00    1.09
 1990 351   167    55     3    10.0   12.6   16556    4.6    8.0   0.3   0.4   0.3   0.3   0.3   0.3   0.3   0.3   0.0   0.0   0.1   0.5   0.6   0.5   0.5  0.59  0.49  0.31  0.00  0.00   94.00  112.91    0.33    0.00    1.09
 1990 352   168    55     3    10.0   12.6   16555    4.5    8.1   0.3   0.3   0.3   0.3   0.3   0.3   0.3   0.3   0.0   0.0   0.2   0.6   0.6   0.5   0.5  0.59  0.49  0.30  0.00  0.00   94.75  113.27    0.33    0.00    1.09
 1990 353   169    55     3    10.0   12.7   16555    4.4    8.2   0.3   0.3   0.3   0.3   0.3   0.3   0.3   0.3   0.0   0.0   0.3   0.7   0.6   0.5   0.5  0.59  0.49  0.30  0.00  0.00   95.51  113.67    0.33    0.00    1.09
 1990 354   170    55     3    10.0   12.7   16554    4.8    7.9   0.7   0.4   0.3   0.3   0.3   0.3   0.3   0.3   0.0   0.0   0.1   0.5   0.6   0.5   0.5  0.59  0.48  0.29  0.00  0.00   96.25  114.43    0.33    0.00    1.09
 1990 355   171    55     3    10.0   12.4   16553    4.5    7.9   0.3   0.4   0.3   0.3   0.3   0.3   0.3   0.3   0.0   0.0   0.1   0.5   0.6   0.5   0.5  0.59  0.48  0.29  0.00  0.00   96.99  114.97    0.33    0.00    1.10
 1990 356   172    55     3    10.0   12.4   16553    4.6    7.8   0.4   0.4   0.3   0.3   0.3   0.3   0.3   0.3   0.0   0.0   0.1   0.5   0.6   0.5   0.5  0.59  0.48  0.28  0.00  0.00   97.73  115.56    0.33    0.00    1.10
 1990 357   173    55     3    10.0   12.4   16552    4.6    7.8   0.4   0.4   0.3   0.3   0.3   0.3   0.3   0.3   0.0   0.0   0.1   0.5   0.6   0.5   0.5  0.59  0.48  0.28  0.00  0.00   98.49  116.15    0.33    0.00    1.10
 1990 358   174    55     3    10.0   12.4   16551    4.6    7.7   0.4   0.4   0.3   0.3   0.3   0.3   0.3   0.3   0.0   0.0   0.1   0.5   0.6   0.5   0.5  0.58  0.47  0.27  0.00  0.00   99.27  116.77    0.33    0.00    1.11
 1990 359   175    55     3    10.0   12.3   16551    4.6    7.7   0.4   0.4   0.3   0.3   0.3   0.3   0.3   0.3   0.0   0.0   0.1   0.5   0.6   0.5   0.5  0.58  0.47  0.27  0.00  0.00  100.06  117.41    0.33    0.00    1.11
 1990 360   176    55     3    10.0   12.3   16550    4.6    7.6   0.4   0.4   0.3   0.3   0.3   0.3   0.3   0.3   0.0   0.0   0.1   0.5   0.6   0.5   0.5  0.58  0.47  0.26  0.00  0.00  100.83  118.05    0.33    0.00    1.11
 1990 361   177    55     3    10.0   12.2   16550    4.6    7.6   0.4   0.4   0.3   0.3   0.3   0.3   0.3   0.3   0.0   0.0   0.1   0.5   0.6   0.5   0.5  0.58  0.46  0.26  0.00  0.00  101.56  118.69    0.33    0.00    1.11
 1990 362   178    55     3    10.0   12.1   16549    4.6    7.5   0.4   0.4   0.3   0.3   0.3   0.3   0.3   0.3   0.0   0.0   0.1   0.5   0.6   0.5   0.5  0.58  0.46  0.26  0.00  0.00  102.27  119.28    0.33    0.00    1.12
 1990 363   179    55     3    10.0   12.0   16548    4.6    7.5   0.4   0.4   0.3   0.3   0.3   0.3   0.3   0.3   0.0   0.0   0.1   0.4   0.6   0.5   0.5  0.58  0.46  0.25  0.00  0.00  102.93  119.85    0.33    0.00    1.12
 1990 364   180    55     3    10.0   11.9   16548    4.5    7.4   0.4   0.4   0.3   0.3   0.3   0.3   0.3   0.3   0.0   0.0   0.1   0.4   0.6   0.5   0.5  0.57  0.45  0.25  0.00  0.00  103.55  120.38    0.33    0.00    1.12
 1990 365   181    55     3    10.0   11.9   16547    4.5    7.3   0.2   0.4   0.4   0.3   0.3   0.3   0.3   0.3   0.0   0.0   0.1   0.4   0.6   0.5   0.5  0.57  0.45  0.25  0.00  0.00  104.14  120.91    0.33    0.00    1.12
 1991 001   182    55     3    10.0   11.9   16547    4.3    7.6   0.2   0.3   0.3   0.3   0.3   0.3   0.3   0.3   0.0   0.0   0.2   0.5   0.6   0.5   0.5  0.57  0.45  0.24  0.00  0.00  104.83  121.26    0.33    0.00    1.13
 1991 002   183    55     3    10.0   12.1   16546    4.6    7.4   0.5   0.4   0.3   0.3   0.3   0.3   0.3   0.3   0.0   0.0   0.1   0.5   0.6   0.5   0.5  0.57  0.44  0.24  0.00  0.00  105.55  121.94    0.33    0.00    1.13
 1991 003   184    55     3    10.0   12.0   16546    4.6    7.4   0.4   0.4   0.3   0.3   0.3   0.3   0.3   0.3   0.0   0.0   0.1   0.5   0.6   0.5   0.5  0.57  0.44  0.24  0.00  0.00  106.30  122.55    0.33    0.00    1.13
 1991 004   185    55     3    10.0   12.0   16545    4.7    7.3   0.5   0.4   0.3   0.3   0.3   0.3   0.3   0.3   0.0   0.0   0.1   0.5   0.6   0.5   0.5  0.57  0.44  0.23  0.00  0.00  107.07  123.24    0.33    0.00    1.14
 1991 005   186    55     3    10.0   11.9   16544    4.7    7.2   0.4   0.4   0.3   0.3   0.3   0.3   0.3   0.3   0.0   0.0   0.1   0.5   0.6   0.5   0.5  0.57  0.43  0.23  0.00  0.00  107.81  123.93    0.33    0.00    1.14
 1991 006   187    55     3    10.0   11.8   16544    4.7    7.1   0.2   0.4   0.4   0.3   0.3   0.3   0.3   0.3   0.0   0.0   0.1   0.4   0.6   0.5   0.5  0.57  0.43  0.23  0.00  0.00  108.50  124.59    0.33    0.00    1.14
 1991 007   188    55     3    10.0   11.8   16543    4.4    7.4   0.2   0.3   0.3   0.3   0.3   0.3   0.3   0.3   0.0   0.0   0.2   0.6   0.6   0.5   0.5  0.56  0.43  0.22  0.00  0.00  109.32  125.01    0.33    0.00    1.14
 1991 008   189    55     3    10.0   12.0   16542    4.9    7.1   0.6   0.5   0.4   0.3   0.3   0.3   0.3   0.3   0.0   0.0   0.0   0.5   0.6   0.5   0.5  0.56  0.42  0.22  0.00  0.00  110.15  125.90    0.33    0.00    1.15
 1991 009   190    55     3    10.0   11.8   16542    4.6    7.2   0.2   0.5   0.3   0.3   0.3   0.3   0.3   0.3   0.0   0.0   0.2   0.5   0.6   0.5   0.5  0.56  0.42  0.22  0.00  0.00  111.00  126.51    0.33    0.00    1.15
 1991 010   191    55     3    10.0   11.9   16541    4.8    7.1   0.6   0.4   0.3   0.3   0.3   0.3   0.3   0.3   0.0   0.0   0.0   0.5   0.6   0.5   0.5  0.56  0.42  0.22  0.00  0.00  111.84  127.32    0.33    0.00    1.15
 1991 011   192    55     3    10.0   11.7   16540    4.6    7.1   0.3   0.4   0.3   0.3   0.3   0.3   0.3   0.3   0.0   0.0   0.2   0.5   0.6   0.4   0.4  0.56  0.41  0.21  0.00  0.00  112.66  127.92    0.33    0.00    1.15
 1991 012   193    55     3    10.0   12.5   16540    5.3    7.2   0.6   0.6   0.4   0.3   0.3   0.3   0.3   0.3   0.0   0.0   0.1   0.5   0.7   0.4   0.4  0.57  0.41  0.21  0.00  0.00  113.45  128.64    0.33    0.00    1.15
 1991 013   194    55     3    10.0   13.2   16539    5.9    7.3   0.7   0.8   0.5   0.4   0.3   0.3   0.3   0.3   0.0   0.0   0.1   0.5   0.7   0.4   0.4  0.58  0.41  0.21  0.00  0.00  114.15  129.23    0.33    0.00    1.16
 1991 014   195    55     3    10.0   13.8   16538    6.5    7.3   0.8   0.9   0.6   0.4   0.4   0.3   0.3   0.3   0.0   0.0   0.1   0.4   0.8   0.4   0.4  0.59  0.40  0.21  0.00  0.00  114.78  129.83    0.33    0.00    1.16

*DSSAT Cropping System Model Ver. 4.0.2.000               Aug 01, 2016; 14:59:40

*RUN   2        : UYMZ                    
 MODEL          : MZCER040 - Maize           
 EXPERIMENT     : UYMZ0097 MZ    late to create DSS                             
 TREATMENT  1   : UYMZ                    

@YEAR DOY   DAS  NAPC  NI#M    NLCC   NIAD    NOAD   NITD   NHTD  NI1D  NI2D  NI3D  NI4D  NI5D  NI6D  NI7D  NI8D  NI9D  NI10  NH1D  NH2D  NH3D  NH4D  NH5D  NH6D  NH7D  NH8D  NH9D  NH10    NMNC    NITC    NDNC    NIMC    AMLC
 1991 184     0     0     0     0.0   99.2   16646   76.2   23.0  15.8  15.2  15.1   8.6   4.6   0.0   0.1   0.1   0.0   0.0   0.8   1.4   1.5   1.4   1.5  1.50  1.47  1.46  0.00  0.00    0.43    1.37    0.00    0.00    0.00
 1991 185     1     0     0     0.0   99.6   16645   77.3   22.3  16.1  15.4  15.2   8.7   4.6   0.0   0.1   0.1   0.0   0.0   0.5   1.2   1.4   1.4   1.4  1.51  1.44  1.42  0.00  0.00    0.85    2.47    0.00    0.00    0.00
 1991 186     2     0     0     0.0  100.0   16645   78.2   21.8  16.4  15.5  15.3   8.7   4.7   0.1   0.1   0.1   0.0   0.0   0.3   1.1   1.4   1.4   1.4  1.51  1.41  1.38  0.00  0.00    1.24    3.43    0.00    0.00    0.00
 1991 187     3     0     1     0.0  100.4   16644   79.1   21.3   5.9  15.8  18.8   8.8   4.7   0.1   0.2   0.2   0.0   0.0   0.2   1.1   1.4   1.3   1.3  1.51  1.38  1.34  0.00  0.00    1.63    4.30    0.00    0.00    0.00
 1991 188     4     0     1     0.0  100.8   16644   79.8   21.0   5.9  15.3  19.3   8.9   4.8   0.1   0.2   0.2   0.0   0.0   0.2   1.1   1.4   1.3   1.3  1.51  1.35  1.30  0.00  0.00    2.01    4.96    0.00    0.00    0.00
 1991 189     5     0     1     0.0  101.1   16644   80.5   20.7   6.0  15.0  19.5   9.1   4.8   0.1   0.2   0.3   0.0   0.0   0.2   1.1   1.4   1.2   1.3  1.51  1.32  1.27  0.00  0.00    2.38    5.65    0.00    0.00    0.00
 1991 190     6     0     1     0.0  101.5   16643   81.3   20.3   2.6  10.4  18.4  13.2   5.6   0.1   0.3   0.3   0.0   0.0   0.1   1.0   1.3   1.2   1.2  1.52  1.29  1.23  0.00  0.00    2.77    6.45    0.00    0.00    0.00
 1991 191     7     0     1     0.0  101.9   16643   81.7   20.3   2.6  10.2  18.0  12.8   6.5   0.1   0.3   0.3   0.0   0.0   0.2   1.1   1.4   1.2   1.2  1.52  1.27  1.20  0.00  0.00    3.17    6.86    0.00    0.00    0.00
 1991 192     8     0     1     0.0  102.3   16642   82.1   20.2   2.6  10.2  17.8  12.6   6.8   0.3   0.4   0.4   0.0   0.0   0.1   1.1   1.4   1.2   1.2  1.52  1.24  1.16  0.00  0.00    3.56    7.33    0.00    0.00    0.00
 1991 193     9     0     1     0.0  102.7   16642   82.5   20.2   2.8  10.1  17.6  12.5   6.9   0.3   0.4   0.4   0.0   0.0   0.1   1.1   1.5   1.3   1.1  1.53  1.22  1.13  0.00  0.00    3.94    7.74    0.00    0.00    0.00
 1991 194    10     0     1     0.0  103.0   16642   82.9   20.1   3.0  10.2  17.6  12.5   7.0   0.4   0.4   0.5   0.0   0.0   0.1   1.0   1.5   1.3   1.1  1.55  1.22  1.10  0.00  0.00    4.29    8.12    0.00    0.00    0.00
 1991 195    11     0     1     0.0  103.3   16641   83.3   20.0   3.3  10.2  17.7  12.4   7.0   0.4   0.4   0.5   0.0   0.0   0.1   1.0   1.5   1.3   1.2  1.56  1.21  1.09  0.00  0.00    4.61    8.52    0.01    0.00    0.00
 1991 196    12     0     1     0.0  103.6   16641   83.7   20.0   3.5  10.2  17.7  12.5   7.0   0.4   0.4   0.5   0.0   0.0   0.1   0.9   1.5   1.3   1.2  1.57  1.21  1.08  0.00  0.00    4.92    8.90    0.02    0.00    0.00
 1991 197    13     0     1     0.0  103.9   16641   84.0   19.9   3.7  10.2  17.8  12.5   7.0   0.4   0.4   0.5   0.0   0.0   0.1   0.9   1.4   1.3   1.2  1.58  1.21  1.08  0.00  0.00    5.21    9.27    0.02    0.00    0.00
 1991 198    14     0     1     0.0  104.2   16641   84.4   19.8   2.7   9.5  18.2  12.8   7.2   0.4   0.4   0.5   0.0   0.0   0.1   0.8   1.4   1.3   1.2  1.59  1.21  1.07  0.00  0.00    5.53    9.63    0.02    0.00    0.00
 1991 199    15     0     1     0.1  104.5   16640   84.5   20.0   1.8   8.1  17.0  13.2   8.3   0.7   0.5   0.5   0.0   0.0   0.1   0.8   1.5   1.3   1.2  1.61  1.21  1.06  0.00  0.00    5.88    9.80    0.06    0.00    0.00
 1991 200    16     0     1     0.2  104.6   16640   84.3   20.3   1.8   8.0  16.6  12.8   8.3   1.0   0.5   0.5   0.0   0.0   0.1   0.9   1.5   1.3   1.2  1.62  1.21  1.05  0.00  0.00    6.27    9.94    0.22    0.00    0.00
 1991 201    17     0     1     0.2  104.9   16639   84.4   20.5   1.3   6.9  15.7  12.9   8.9   1.4   0.6   0.5   0.0   0.0   0.1   0.9   1.6   1.3   1.2  1.63  1.21  1.04  0.00  0.00    6.68   10.15    0.32    0.00    0.00
 1991 202    18     0     1     0.2  105.1   16639   84.4   20.8   1.3   6.8  15.4  12.7   9.0   1.5   0.6   0.6   0.0   0.0   0.2   1.0   1.6   1.3   1.2  1.65  1.21  1.03  0.00  0.00    7.11   10.30    0.50    0.00    0.00
 1991 203    19     0     1     0.4  105.0   16639   84.0   21.0   1.3   6.7  15.0  12.3   8.9   1.8   0.7   0.6   0.0   0.0   0.2   1.0   1.7   1.4   1.2  1.66  1.21  1.03  0.00  0.00    7.53   10.46    0.84    0.00    0.00
 1991 204    20     0     1     0.5  105.1   16638   83.9   21.2   1.4   6.6  14.9  12.1   8.9   1.9   0.8   0.6   0.0   0.0   0.2   1.0   1.7   1.4   1.3  1.67  1.21  1.02  0.00  0.00    7.94   10.69    1.04    0.00    0.00
 1991 205    21     0     1     0.6  105.4   16638   84.1   21.2   1.6   6.7  14.8  12.0   8.8   2.0   0.8   0.6   0.0   0.0   0.1   1.0   1.7   1.4   1.3  1.69  1.21  1.01  0.00  0.00    8.32   11.04    1.14    0.00    0.00
 1991 206    22     0     1     0.6  105.7   16637   84.5   21.1   1.9   6.7  14.9  12.0   8.8   2.0   0.8   0.6   0.0   0.0   0.1   0.9   1.7   1.4   1.3  1.70  1.21  1.01  0.00  0.00    8.70   11.51    1.17    0.00    0.00
 1991 207    23     0     1     0.6  106.0   16637   85.0   21.1   2.1   6.8  15.0  11.9   8.8   2.0   0.9   0.6   0.0   0.0   0.1   0.8   1.7   1.4   1.3  1.71  1.21  1.00  0.00  0.00    9.10   11.98    1.19    0.00    0.00
 1991 208    24     0     1     0.6  106.5   16637   85.4   21.0   2.3   6.8  15.0  12.0   8.8   2.0   0.9   0.6   0.0   0.0   0.1   0.8   1.6   1.4   1.3  1.72  1.21  0.99  0.00  0.00    9.52   12.46    1.20    0.00    0.00
 1991 209    25     0     1     0.6  106.9   16636   86.0   21.0   2.6   6.9  15.1  12.0   8.8   2.0   0.9   0.7   0.0   0.0   0.1   0.7   1.6   1.4   1.3  1.74  1.21  0.98  0.00  0.00   10.00   12.99    1.21    0.00    0.00
 1991 210    26     0     1     1.8  106.3   16635   85.5   20.8   0.8   3.6  10.6  10.5   9.7   4.2   2.2   1.1   0.0   0.0   0.1   0.7   1.6   1.3   1.3  1.75  1.21  0.98  0.00  0.00   10.56   13.70    1.22    0.00    0.00
 1991 211    27     0     1     2.4  105.9   16635   84.7   21.2   0.8   3.4  10.3  10.1   9.5   4.3   2.4   1.2   0.0   0.0   0.2   0.8   1.6   1.4   1.3  1.77  1.21  0.98  0.00  0.00   11.14   13.84    1.38    0.00    0.00
 1991 212    28     0     1     2.8  106.0   16634   84.5   21.5   0.9   3.4  10.1   9.9   9.3   4.3   2.5   1.3   0.0   0.0   0.1   0.9   1.7   1.4   1.3  1.78  1.22  0.97  0.00  0.00   11.70   14.12    1.48    0.00    0.00
 1991 213    29     0     1     3.0  106.3   16634   84.5   21.8   1.1   3.4  10.1   9.8   9.2   4.4   2.5   1.4   0.0   0.0   0.1   0.9   1.8   1.4   1.4  1.80  1.22  0.97  0.00  0.00   12.25   14.41    1.53    0.00    0.00
 1991 214    30     0     1     3.1  106.6   16633   84.7   21.9   1.2   3.5  10.1   9.8   9.2   4.4   2.5   1.4   0.0   0.0   0.1   0.8   1.8   1.4   1.4  1.81  1.22  0.96  0.00  0.00   12.72   14.80    1.57    0.00    0.00
 1991 215    31     0     1     3.2  106.9   16633   85.1   21.8   1.4   3.6  10.2   9.8   9.2   4.4   2.6   1.4   0.0   0.0   0.1   0.8   1.8   1.4   1.4  1.82  1.22  0.95  0.00  0.00   13.10   15.26    1.59    0.00    0.00
 1991 216    32     0     1     3.2  107.2   16633   85.5   21.7   1.5   3.6  10.3   9.8   9.2   4.4   2.6   1.4   0.0   0.0   0.1   0.8   1.7   1.4   1.4  1.84  1.21  0.95  0.00  0.00   13.46   15.69    1.61    0.00    0.00
 1991 217    33     0     1     3.2  107.5   16632   85.9   21.6   1.6   3.7  10.4   9.8   9.2   4.4   2.6   1.4   0.0   0.0   0.1   0.7   1.7   1.4   1.4  1.85  1.21  0.94  0.00  0.00   13.79   16.10    1.62    0.00    0.00
 1991 218    34     0     1     3.2  107.8   16632   86.3   21.6   1.7   3.8  10.5   9.8   9.2   4.4   2.6   1.4   0.0   0.0   0.1   0.7   1.7   1.4   1.4  1.86  1.21  0.93  0.00  0.00   14.10   16.48    1.64    0.00    0.00
 1991 219    35     0     1     3.2  108.1   16632   86.7   21.4   1.9   3.8  10.5   9.9   9.2   4.4   2.6   1.4   0.0   0.0   0.1   0.6   1.6   1.4   1.4  1.87  1.21  0.93  0.00  0.00   14.42   16.94    1.65    0.00    0.00
 1991 220    36     0     1     3.2  108.5   16631   87.2   21.3   2.0   3.9  10.6   9.9   9.3   4.4   2.6   1.5   0.0   0.0   0.1   0.6   1.6   1.3   1.4  1.88  1.21  0.92  0.00  0.00   14.77   17.40    1.66    0.00    0.00
 1991 221    37     0     1     3.3  108.7   16631   87.5   21.2   0.8   2.7   8.8   9.5   9.7   5.3   3.1   1.7   0.0   0.0   0.1   0.6   1.6   1.3   1.4  1.89  1.21  0.91  0.00  0.00   15.10   17.86    1.67    0.00    0.00
 1991 222    38     0     1     3.5  108.7   16631   87.2   21.4   0.8   2.7   8.6   9.3   9.6   5.3   3.2   1.8   0.0   0.0   0.1   0.6   1.6   1.3   1.4  1.91  1.21  0.91  0.00  0.00   15.46   17.97    1.83    0.00    0.00
 1991 223    39     0     1     4.3  108.2   16630   86.5   21.7   0.9   2.7   8.5   9.0   9.3   5.3   3.3   1.9   0.0   0.0   0.1   0.7   1.6   1.3   1.4  1.92  1.22  0.91  0.00  0.00   15.84   18.12    1.98    0.00    0.00
 1991 224    40     0     1     4.7  108.0   16630   86.1   21.9   0.9   2.7   8.4   8.9   9.2   5.3   3.4   2.0   0.0   0.0   0.1   0.7   1.7   1.3   1.4  1.93  1.22  0.90  0.00  0.00   16.23   18.31    2.07    0.00    0.00
 1991 225    41     0     1     5.0  108.0   16629   86.1   22.0   1.0   2.7   8.4   8.8   9.1   5.3   3.4   2.0   0.0   0.0   0.1   0.7   1.7   1.4   1.4  1.94  1.22  0.90  0.00  0.00   16.61   18.60    2.12    0.00    0.00
 1991 226    42     0     1     5.2  108.2   16629   86.3   21.9   1.2   2.8   8.5   8.8   9.0   5.3   3.4   2.0   0.0   0.0   0.1   0.6   1.7   1.4   1.5  1.96  1.22  0.89  0.00  0.00   17.01   19.03    2.17    0.00    0.00
 1991 227    43     0     1     5.2  108.6   16629   86.7   21.9   1.3   2.9   8.6   8.8   9.0   5.3   3.4   2.1   0.0   0.0   0.1   0.6   1.6   1.4   1.5  1.97  1.22  0.89  0.00  0.00   17.46   19.51    2.19    0.00    0.00
 1991 228    44     0     1     5.2  109.1   16628   87.2   21.9   1.4   3.0   8.7   8.8   9.0   5.3   3.4   2.1   0.0   0.0   0.1   0.6   1.6   1.4   1.5  1.98  1.22  0.88  0.00  0.00   17.97   20.04    2.21    0.00    0.00
 1991 229    45     0     1     5.2  109.6   16627   87.8   21.9   1.6   3.1   8.8   8.8   9.1   5.3   3.4   2.1   0.0   0.0   0.1   0.6   1.6   1.4   1.5  1.99  1.22  0.88  0.00  0.00   18.55   20.64    2.23    0.00    0.00
 1991 230    46     0     1     5.2  110.3   16627   88.6   21.7   1.8   3.2   8.9   8.9   9.1   5.3   3.4   2.1   0.0   0.0   0.1   0.6   1.5   1.3   1.5  2.01  1.22  0.87  0.00  0.00   19.19   21.44    2.24    0.00    0.00
 1991 231    47     0     1     5.2  110.9   16626   89.3   21.6   2.0   3.3   9.1   9.0   9.1   5.3   3.5   2.1   0.0   0.0   0.1   0.5   1.5   1.3   1.5  2.02  1.22  0.86  0.00  0.00   19.84   22.22    2.26    0.00    0.00
 1991 232    48    45     2     5.2  156.3   16626  112.4   43.8  42.8   3.4   9.2   9.1   9.1   5.3   3.5   2.1   0.0   0.0  40.5   0.5   1.4   1.2   1.5  2.04  1.22  0.86  0.00  0.00   20.48   22.98    2.28    0.00    0.04
 1991 233    49    45     2     5.2  156.6   16625  134.5   22.0  81.6   3.5   9.3   9.2   9.2   5.3   3.5   2.1   0.0   0.0   1.4   0.5   1.4   1.2   1.5  2.05  1.21  0.85  0.00  0.00   21.11   45.23    2.29    0.00    0.08
 1991 234    50    45     2     5.3  156.8   16624  135.5   21.3  39.0  21.8   9.9   9.9   9.7   5.4   3.5   2.2   0.0   0.0   0.2   0.5   1.4   1.1   1.5  2.06  1.21  0.84  0.00  0.00   21.71   46.55    2.31    0.00    0.11
 1991 235    51    45     2     5.3  156.8   16624  135.2   21.5  38.8  21.4   9.9   9.8   9.7   5.5   3.6   2.2   0.0   0.0   0.0   0.6   1.5   1.2   1.5  2.08  1.21  0.84  0.00  0.00   22.30   46.80    2.39    0.00    0.20
 1991 236    52    45     2     5.8  156.4   16623  134.4   21.9  38.4  21.2   9.8   9.5   9.4   5.6   3.7   2.3   0.0   0.0   0.1   0.7   1.5   1.2   1.5  2.09  1.21  0.83  0.00  0.00   22.89   46.99    2.49    0.00    0.20
 1991 237    53    45     2     6.0  156.4   16623  134.3   22.1  19.8  21.6  12.7   9.7   9.7   6.2   4.2   2.5   0.0   0.0   0.1   0.7   1.6   1.2   1.5  2.10  1.21  0.83  0.00  0.00   23.44   47.36    2.55    0.00    0.22
 1991 238    54    45     2     6.2  156.2   16622  133.8   22.4  19.2  21.4  12.7   9.6   9.6   6.2   4.3   2.6   0.0   0.0   0.1   0.7   1.7   1.2   1.6  2.12  1.22  0.82  0.00  0.00   23.97   47.51    2.75    0.00    0.24
 1991 239    55    45     2     7.3  155.0   16622  132.3   22.7  19.1  21.1  12.5   9.4   9.3   6.2   4.3   2.7   0.0   0.0   0.1   0.8   1.7   1.2   1.6  2.13  1.22  0.82  0.00  0.00   24.46   47.67    3.11    0.00    0.27
 1991 240    56    45     2     7.9  154.3   16621  131.4   22.9  19.3  20.7  12.4   9.3   9.2   6.1   4.3   2.8   0.0   0.0   0.1   0.8   1.8   1.3   1.6  2.15  1.22  0.82  0.00  0.00   24.92   47.90    3.31    0.00    0.30
 1991 241    57    45     2     8.3  154.3   16621  131.2   23.0  19.8  20.6  12.3   9.2   9.1   6.1   4.3   2.9   0.0   0.0   0.1   0.8   1.8   1.3   1.6  2.16  1.22  0.81  0.00  0.00   25.37   48.24    3.42    0.00    0.31
 1991 242    58    45     2     8.4  154.3   16620  131.4   23.0  20.2  20.4  12.4   9.1   9.1   6.1   4.4   2.9   0.0   0.0   0.1   0.7   1.8   1.3   1.6  2.17  1.22  0.81  0.00  0.00   25.84   48.76    3.47    0.00    0.32
 1991 243    59    45     2     8.5  154.2   16620  131.3   22.9  20.6  20.2  12.4   9.2   9.1   6.1   4.4   2.9   0.0   0.0   0.1   0.7   1.7   1.3   1.6  2.18  1.22  0.80  0.00  0.00   26.31   49.28    3.51    0.00    0.32
 1991 244    60    45     2     8.6  154.1   16619  131.3   22.8  20.8  19.9  12.4   9.2   9.1   6.1   4.4   2.9   0.0   0.0   0.1   0.7   1.7   1.3   1.6  2.19  1.22  0.80  0.00  0.00   26.80   49.81    3.53    0.00    0.32
 1991 245    61    45     2     8.6  154.0   16619  131.2   22.8  17.7  21.1  12.6   9.2   9.1   6.1   4.4   2.9   0.0   0.0   0.1   0.6   1.6   1.3   1.6  2.20  1.22  0.79  0.00  0.00   27.28   50.33    3.55    0.00    0.32
 1991 246    62    45     2     8.6  154.4   16618  131.5   22.9  16.2  21.1  13.1   9.2   9.1   6.1   4.4   2.9   0.0   0.0   0.2   0.7   1.6   1.3   1.6  2.22  1.22  0.79  0.00  0.00   27.77   50.72    3.57    0.00    0.33
 1991 247    63    45     2     8.7  154.4   16618  131.4   23.0  16.1  20.8  13.1   9.3   9.1   6.1   4.4   2.9   0.0   0.0   0.2   0.8   1.6   1.3   1.6  2.23  1.22  0.78  0.00  0.00   28.25   51.05    3.58    0.00    0.33
 1991 248    64    45     2     8.7  154.0   16617  130.8   23.1  16.1  20.3  13.0   9.3   9.1   6.1   4.4   2.9   0.0   0.0   0.2   0.8   1.7   1.3   1.6  2.24  1.22  0.78  0.00  0.00   28.74   51.37    3.60    0.00    0.33
 1991 249    65    45     2     8.7  153.5   16617  130.6   22.9  15.6  20.2  12.9   9.4   9.2   6.1   4.4   3.0   0.0   0.0   0.1   0.7   1.6   1.2   1.6  2.25  1.22  0.77  0.00  0.00   29.31   52.13    3.62    0.00    0.34
 1991 250    66    45     2     8.7  153.1   16616  130.4   22.7  15.1  20.2  12.8   9.5   9.2   6.1   4.4   3.0   0.0   0.0   0.2   0.7   1.5   1.2   1.6  2.26  1.22  0.77  0.00  0.00   29.87   52.80    3.63    0.00    0.34
 1991 251    67    45     2     8.7  152.3   16616  129.8   22.5  15.0  19.8  12.6   9.5   9.2   6.2   4.4   3.0   0.0   0.0   0.1   0.7   1.5   1.2   1.6  2.27  1.22  0.76  0.00  0.00   30.44   53.54    3.65    0.00    0.34
 1991 252    68    45     2     8.7  152.0   16615  129.6   22.3  15.2  19.5  12.5   9.6   9.2   6.2   4.5   3.0   0.0   0.0   0.1   0.6   1.4   1.1   1.6  2.29  1.22  0.76  0.00  0.00   31.01   54.21    3.67    0.00    0.37
 1991 253    69    45     2     8.7  151.8   16614  129.6   22.2  15.5  19.2  12.5   9.7   9.3   6.2   4.5   3.0   0.0   0.0   0.1   0.6   1.4   1.1   1.6  2.30  1.21  0.75  0.00  0.00   31.55   54.82    3.68    0.00    0.39
 1991 254    70    45     2     8.7  151.2   16614  129.1   22.1  15.6  18.8  12.3   9.7   9.3   6.2   4.5   3.0   0.0   0.0   0.1   0.6   1.4   1.1   1.6  2.31  1.21  0.75  0.00  0.00   32.07   55.40    3.70    0.00    0.41
 1991 255    71    45     2     8.7  150.2   16613  128.2   22.0  15.6  18.2  12.1   9.7   9.3   6.2   4.5   3.0   0.0   0.0   0.1   0.6   1.3   1.0   1.6  2.32  1.21  0.74  0.00  0.00   32.63   56.00    3.71    0.00    0.43
 1991 256    72    45     2     8.7  148.7   16613  126.8   21.9  15.5  17.6  11.7   9.6   9.3   6.2   4.5   3.0   0.0   0.0   0.1   0.5   1.3   1.0   1.7  2.33  1.21  0.74  0.00  0.00   33.23   56.65    3.73    0.00    0.44
 1991 257    73    45     2     8.7  147.8   16612  126.0   21.8  15.4  17.1  11.5   9.6   9.4   6.2   4.5   3.0   0.0   0.0   0.1   0.5   1.2   0.9   1.7  2.35  1.21  0.73  0.00  0.00   33.89   57.35    3.74    0.00    0.46
 1991 258    74    45     2     8.7  146.2   16612  124.5   21.7  15.1  16.5  11.1   9.5   9.4   6.2   4.5   3.0   0.0   0.0   0.1   0.5   1.2   0.9   1.7  2.36  1.21  0.73  0.00  0.00   34.52   58.01    3.76    0.00    0.48
 1991 259    75    45     2     8.7  145.7   16611  124.2   21.5  14.6  16.5  11.0   9.5   9.5   6.2   4.5   3.0   0.0   0.0   0.1   0.5   1.2   0.9   1.6  2.37  1.21  0.72  0.00  0.00   35.10   58.71    3.77    0.00    0.50
 1991 260    76    45     2     8.7  145.8   16610  124.4   21.4   9.0  17.5  12.2   9.5   9.6   6.2   4.5   3.1   0.0   0.0   0.1   0.5   1.2   0.9   1.5  2.38  1.21  0.72  0.00  0.00   35.65   59.33    3.78    0.00    0.52
 1991 261    77    45     2     8.7  145.4   16610  124.1   21.3   8.9  16.9  12.4   9.5   9.6   6.2   4.5   3.1   0.0   0.0   0.1   0.6   1.1   0.8   1.5  2.39  1.21  0.72  0.00  0.00   36.13   59.85    3.79    0.00    0.54
 1991 262    78    45     2     8.7  143.2   16609  121.9   21.2   8.5  16.0  11.8   9.3   9.7   6.2   4.6   3.1   0.0   0.0   0.1   0.6   1.1   0.8   1.4  2.40  1.21  0.71  0.00  0.00   36.60   60.33    3.80    0.00    0.55
 1991 263    79    45     2     8.7  141.7   16609  120.6   21.1   8.5  15.4  11.4   9.2   9.8   6.2   4.6   3.1   0.0   0.0   0.1   0.6   1.1   0.8   1.4  2.41  1.21  0.71  0.00  0.00   37.07   60.89    3.82    0.00    0.55
 1991 264    80    45     2     8.7  142.1   16608  121.1   21.0   8.8  15.4  11.5   9.3   9.8   6.2   4.6   3.1   0.0   0.0   0.1   0.6   1.1   0.8   1.4  2.43  1.21  0.70  0.00  0.00   37.56   61.46    3.83    0.00    0.55
 1991 265    81    45     2     8.7  141.4   16608  120.6   20.9   8.9  15.0  11.3   9.2   9.9   6.2   4.6   3.1   0.0   0.0   0.1   0.6   1.1   0.8   1.3  2.44  1.20  0.70  0.00  0.00   38.05   62.03    3.84    0.00    0.55
 1991 266    82    45     2     8.7  138.7   16608  118.0   20.7   8.6  14.1  10.7   9.1   9.9   6.2   4.6   3.1   0.0   0.0   0.1   0.5   1.0   0.8   1.3  2.45  1.20  0.70  0.00  0.00   38.54   62.59    3.85    0.00    0.56
 1991 267    83    45     2     8.7  137.5   16607  116.8   20.6   8.6  13.6  10.4   9.0   9.9   6.2   4.6   3.1   0.0   0.0   0.1   0.5   1.0   0.7   1.2  2.46  1.20  0.69  0.00  0.00   39.01   63.12    3.86    0.00    0.56
 1991 268    84    45     2     8.7  137.0   16607  116.5   20.5   8.7  13.4  10.3   8.9   9.9   6.2   4.6   3.1   0.0   0.0   0.1   0.5   1.0   0.7   1.2  2.47  1.20  0.69  0.00  0.00   39.47   63.64    3.87    0.00    0.56
 1991 269    85    45     2     8.7  135.7   16606  115.3   20.4   8.1  13.2  10.0   8.8   9.8   6.2   4.6   3.1   0.0   0.0   0.1   0.5   1.0   0.7   1.2  2.48  1.20  0.68  0.00  0.00   39.94   64.16    3.88    0.00    0.56
 1991 270    86    45     2     8.7  133.5   16606  113.2   20.3   7.4  12.8   9.5   8.7   9.7   6.3   4.6   3.1   0.0   0.0   0.1   0.5   1.0   0.7   1.1  2.49  1.20  0.68  0.00  0.00   40.44   64.68    3.89    0.00    0.57
 1991 271    87    45     2     8.7  132.1   16605  111.8   20.2   7.2  12.4   9.2   8.6   9.7   6.3   4.6   3.1   0.0   0.0   0.1   0.5   1.0   0.7   1.1  2.50  1.20  0.68  0.00  0.00   40.96   65.23    3.91    0.00    0.57
 1991 272    88    45     2     8.7  129.2   16605  109.1   20.1   6.8  11.6   8.6   8.4   9.5   6.3   4.7   3.1   0.0   0.0   0.1   0.5   1.0   0.7   1.0  2.51  1.20  0.67  0.00  0.00   41.48   65.78    3.92    0.00    0.57
 1991 273    89    45     2     8.7  128.0   16604  108.0   20.0   6.6  11.3   8.4   8.3   9.4   6.3   4.7   3.2   0.0   0.0   0.1   0.5   0.9   0.7   1.0  2.52  1.20  0.67  0.00  0.00   41.98   66.31    3.93    0.00    0.57
 1991 274    90    45     2     8.7  126.6   16604  106.7   19.9   6.5  10.9   8.1   8.2   9.3   6.3   4.7   3.2   0.0   0.0   0.1   0.5   0.9   0.7   1.0  2.53  1.20  0.66  0.00  0.00   42.47   66.82    3.94    0.00    0.58
 1991 275    91    45     2     8.7  124.5   16603  104.7   19.8   6.2  10.3   7.6   8.0   9.2   6.3   4.7   3.2   0.0   0.0   0.1   0.5   0.9   0.7   0.9  2.54  1.20  0.66  0.00  0.00   42.91   67.30    3.95    0.00    0.58
 1991 276    92    45     2     8.7  123.4   16603  103.7   19.8   2.6   9.3   9.0   7.9   9.1   6.3   4.7   3.2   0.0   0.0   0.1   0.4   0.9   0.6   0.9  2.55  1.20  0.66  0.00  0.00   43.32   67.74    3.95    0.00    0.58
 1991 277    93    45     2     8.7  122.8   16602  102.9   19.8   2.6   8.9   8.9   7.9   9.0   6.3   4.7   3.2   0.0   0.0   0.2   0.5   0.9   0.6   0.9  2.56  1.19  0.65  0.00  0.00   43.79   68.08    3.96    0.00    0.58
 1991 278    94    45     2     8.7  120.4   16602  100.6   19.8   2.5   8.4   8.3   7.7   8.8   6.3   4.7   3.2   0.0   0.0   0.1   0.6   0.9   0.6   0.9  2.57  1.19  0.65  0.00  0.00   44.27   68.49    3.97    0.00    0.59
 1991 279    95    45     2     8.7  120.4   16601  100.6   19.8   2.5   8.3   8.3   7.8   8.8   6.3   4.7   3.2   0.0   0.0   0.1   0.6   0.9   0.6   0.9  2.58  1.19  0.65  0.00  0.00   44.73   68.95    3.98    0.00    0.59
 1991 280    96    45     2     8.7  119.3   16601   99.6   19.8   2.5   8.1   8.0   7.7   8.7   6.3   4.7   3.2   0.0   0.0   0.1   0.6   0.9   0.6   0.8  2.59  1.19  0.64  0.00  0.00   45.17   69.38    3.98    0.00    0.59
 1991 281    97    45     2     8.7  117.5   16601   97.8   19.7   2.4   7.6   7.5   7.6   8.6   6.3   4.7   3.2   0.0   0.0   0.1   0.5   0.9   0.6   0.8  2.60  1.19  0.64  0.00  0.00   45.58   69.80    3.99    0.00    0.60
 1991 282    98    45     2     8.7  117.5   16600   97.8   19.7   2.5   7.6   7.5   7.6   8.6   6.3   4.8   3.2   0.0   0.0   0.1   0.5   0.9   0.6   0.8  2.61  1.19  0.64  0.00  0.00   46.01   70.22    4.00    0.00    0.60
 1991 283    99    45     2     8.7  115.5   16600   95.8   19.7   2.4   7.1   7.0   7.4   8.4   6.3   4.8   3.2   0.0   0.0   0.1   0.5   0.9   0.6   0.8  2.62  1.19  0.63  0.00  0.00   46.44   70.63    4.00    0.00    0.60
 1991 284   100    45     2     8.7  112.5   16599   92.9   19.6   2.3   6.4   6.3   7.1   8.1   6.3   4.8   3.2   0.0   0.0   0.1   0.5   0.9   0.6   0.8  2.63  1.19  0.63  0.00  0.00   46.91   71.08    4.00    0.00    0.60
 1991 285   101    45     2     8.7  109.6   16599   90.1   19.4   2.2   5.8   5.7   6.9   7.8   6.4   4.8   3.2   0.0   0.0   0.1   0.5   0.8   0.6   0.7  2.62  1.19  0.63  0.00  0.00   47.44   71.66    4.01    0.00    0.61
 1991 286   102    45     2     8.7  105.8   16598   86.6   19.2   1.3   5.3   4.9   6.5   7.5   6.4   4.8   3.2   0.0   0.0   0.1   0.5   0.8   0.6   0.7  2.61  1.19  0.62  0.00  0.00   48.01   72.30    4.01    0.00    0.61
 1991 287   103    55     3     8.7  114.1   16598   89.9   24.2   9.7   3.8   5.3   6.6   7.3   6.4   4.8   3.2   0.0   0.0   9.2   0.5   0.8   0.6   0.7  2.59  1.19  0.62  0.00  0.00   48.66   72.91    4.01    0.00    0.64
 1991 288   104    55     3     8.7  110.8   16597   91.6   19.2  16.5   3.4   4.9   6.4   6.9   6.4   4.8   3.3   0.0   0.0   0.0   0.6   0.9   0.6   0.7  2.58  1.19  0.62  0.00  0.00   49.32   77.74    4.02    0.00    0.68
 1991 289   105    55     3     8.7  108.2   16596   88.8   19.4  14.6   3.1   4.4   6.2   6.7   6.4   4.8   3.3   0.0   0.0   0.1   0.7   1.0   0.6   0.7  2.56  1.19  0.61  0.00  0.00   49.98   78.12    4.02    0.00    0.68
 1991 290   106    55     3     8.7  106.4   16596   87.1   19.3  13.5   3.0   4.1   6.0   6.5   6.4   4.8   3.3   0.0   0.0   0.1   0.6   1.0   0.6   0.7  2.54  1.19  0.61  0.00  0.00   50.61   78.69    4.02    0.00    0.70
 1991 291   107    55     3     8.7  104.1   16595   85.0   19.1  12.3   2.8   3.8   5.9   6.3   6.4   4.8   3.3   0.0   0.0   0.1   0.6   1.0   0.6   0.6  2.52  1.18  0.61  0.00  0.00   51.17   79.29    4.03    0.00    0.72
 1991 292   108    55     3     8.7   99.6   16595   80.8   18.8  10.2   2.4   3.2   5.5   6.0   6.3   4.9   3.3   0.0   0.0   0.1   0.6   0.9   0.6   0.6  2.48  1.18  0.61  0.00  0.00   51.72   79.86    4.03    0.00    0.74
 1991 293   109    55     3     8.7   95.2   16594   76.9   18.4   8.5   2.1   2.7   5.2   5.7   6.2   4.9   3.3   0.0   0.0   0.1   0.5   0.9   0.6   0.6  2.42  1.18  0.60  0.00  0.00   52.30   80.43    4.03    0.00    0.76
 1991 294   110    55     3     8.7   90.9   16594   73.0   17.9   4.5   2.9   2.4   4.9   5.4   6.0   4.9   3.3   0.0   0.0   0.1   0.5   0.8   0.6   0.6  2.33  1.18  0.60  0.00  0.00   52.90   81.01    4.04    0.00    0.78
 1991 295   111    55     3    10.7   83.7   16593   66.2   17.5   0.4   1.6   1.8   3.2   4.6   5.8   5.5   4.0   0.0   0.0   0.2   0.6   0.8   0.5   0.6  2.22  1.18  0.60  0.00  0.00   53.54   81.47    4.04    0.00    0.80
 1991 296   112    55     3    12.6   80.7   16592   63.0   17.8   0.4   1.5   1.6   2.9   4.3   5.5   5.3   4.1   0.0   0.0   0.2   0.7   0.9   0.6   0.6  2.19  1.19  0.60  0.00  0.00   54.20   81.59    4.10    0.00    0.82
 1991 297   113    55     3    13.6   75.8   16592   58.4   17.4   0.6   1.2   1.3   2.5   3.8   5.0   5.2   4.1   0.0   0.0   0.1   0.8   0.9   0.6   0.6  2.09  1.19  0.60  0.00  0.00   54.86   81.89    4.13    0.00    0.85
 1991 298   114    55     3    14.0   72.7   16591   55.6   17.1   0.5   1.1   1.1   2.3   3.5   4.7   5.2   4.0   0.0   0.0   0.1   0.7   0.9   0.6   0.6  2.02  1.19  0.59  0.00  0.00   55.48   82.24    4.15    0.00    0.87
 1991 299   115    55     3    14.2   70.3   16591   53.7   16.7   0.5   1.0   1.0   2.2   3.3   4.5   5.1   4.0   0.0   0.0   0.1   0.6   0.9   0.6   0.6  1.95  1.19  0.59  0.00  0.00   56.07   82.77    4.16    0.00    0.89
 1991 300   116    55     3    14.3   65.0   16590   49.2   15.8   0.4   0.7   0.7   1.9   2.9   4.0   5.1   4.0   0.0   0.0   0.1   0.5   0.7   0.6   0.6  1.81  1.19  0.59  0.00  0.00   56.62   83.24    4.18    0.00    0.89
 1991 301   117    55     3    14.3   60.2   16589   45.3   14.9   0.4   0.5   0.4   1.6   2.5   3.5   5.1   4.0   0.0   0.0   0.1   0.5   0.7   0.6   0.6  1.66  1.19  0.59  0.00  0.00   57.20   83.72    4.18    0.00    0.89
 1991 302   118    55     3    14.3   55.6   16589   41.5   14.1   0.4   0.4   0.3   1.3   2.0   3.0   5.1   4.0   0.0   0.0   0.1   0.5   0.6   0.6   0.6  1.48  1.19  0.58  0.00  0.00   57.80   84.24    4.19    0.00    0.90
 1991 303   119    55     3    14.3   54.4   16588   40.6   13.9   0.4   0.4   0.3   1.2   1.9   2.8   5.2   4.0   0.0   0.0   0.1   0.5   0.6   0.6   0.6  1.43  1.19  0.58  0.00  0.00   58.42   84.75    4.19    0.00    0.90
 1991 304   120    55     3    14.3   50.4   16588   37.3   13.1   0.4   0.4   0.3   0.9   1.5   2.3   5.2   4.0   0.0   0.0   0.1   0.5   0.6   0.5   0.6  1.27  1.19  0.58  0.00  0.00   59.03   85.27    4.19    0.00    0.90
 1991 305   121    55     3    14.3   47.2   16587   34.7   12.5   0.4   0.4   0.3   0.7   1.2   1.9   5.2   4.0   0.0   0.0   0.1   0.5   0.6   0.5   0.5  1.14  1.19  0.58  0.00  0.00   59.64   85.76    4.20    0.00    0.90
 1991 306   122    55     3    14.3   44.7   16587   32.7   12.0   0.4   0.4   0.3   0.6   1.0   1.6   5.2   4.0   0.0   0.0   0.1   0.5   0.6   0.5   0.5  1.03  1.19  0.57  0.00  0.00   60.23   86.23    4.20    0.00    0.91
 1991 307   123    55     3    14.3   42.6   16586   31.0   11.6   0.4   0.4   0.3   0.5   0.8   1.3   5.2   4.1   0.0   0.0   0.1   0.5   0.6   0.5   0.5  0.94  1.18  0.57  0.00  0.00   60.81   86.70    4.21    0.00    0.91
 1991 308   124    55     3    14.3   41.0   16586   29.7   11.3   0.4   0.4   0.3   0.4   0.6   1.1   5.2   4.1   0.0   0.0   0.1   0.5   0.6   0.5   0.5  0.87  1.18  0.57  0.00  0.00   61.40   87.18    4.21    0.00    0.91
 1991 309   125    55     3    14.3   39.7   16585   28.7   11.0   0.2   0.4   0.3   0.3   0.5   0.9   5.2   4.1   0.0   0.0   0.1   0.5   0.6   0.5   0.5  0.82  1.18  0.57  0.00  0.00   62.00   87.68    4.21    0.00    0.91
 1991 310   126    55     3    14.3   38.7   16584   27.7   11.0   0.2   0.2   0.4   0.3   0.4   0.8   5.2   4.1   0.0   0.0   0.2   0.6   0.6   0.5   0.5  0.77  1.18  0.56  0.00  0.00   62.67   88.03    4.22    0.00    0.92
 1991 311   127    55     3    14.3   38.2   16584   27.0   11.1   0.2   0.2   0.3   0.3   0.4   0.6   5.2   4.1   0.0   0.0   0.3   0.7   0.7   0.5   0.5  0.73  1.18  0.56  0.00  0.00   63.34   88.29    4.22    0.00    0.92
 1991 312   128    55     3    14.3   37.7   16583   26.6   11.1   0.2   0.3   0.3   0.3   0.3   0.5   5.3   4.1   0.0   0.0   0.4   0.7   0.7   0.5   0.5  0.70  1.18  0.56  0.00  0.00   64.00   88.58    4.22    0.00    0.92
 1991 313   129    55     3    14.3   37.3   16583   26.3   11.0   0.3   0.3   0.3   0.3   0.3   0.4   5.3   4.1   0.0   0.0   0.4   0.7   0.7   0.5   0.5  0.68  1.16  0.56  0.00  0.00   64.62   88.93    4.22    0.00    0.92
 1991 314   130    55     3    14.3   36.9   16582   26.5   10.4   0.6   0.4   0.3   0.3   0.3   0.4   5.3   4.1   0.0   0.0   0.1   0.5   0.6   0.5   0.5  0.65  1.13  0.55  0.00  0.00   65.24   89.69    4.22    0.00    0.92
 1991 315   131    55     3    14.3   34.7   16582   24.4   10.2   0.5   0.3   0.3   0.3   0.3   0.3   4.7   4.1   0.0   0.0   0.2   0.6   0.7   0.5   0.5  0.64  1.03  0.55  0.00  0.00   65.82   89.96    4.23    0.00    0.93
 1991 316   132    55     3    14.3   32.8   16581   22.8   10.0   0.3   0.3   0.3   0.3   0.3   0.3   4.1   4.1   0.0   0.0   0.3   0.6   0.6   0.5   0.5  0.62  0.95  0.55  0.00  0.00   66.38   90.33    4.23    0.00    0.93
 1991 317   133    55     3    14.3   31.3   16581   21.7    9.6   0.5   0.3   0.3   0.3   0.3   0.3   3.6   4.1   0.0   0.0   0.2   0.6   0.6   0.5   0.5  0.61  0.87  0.55  0.00  0.00   66.93   90.78    4.23    0.00    0.93
 1991 318   134    55     3    14.3   30.0   16580   20.7    9.3   0.4   0.4   0.3   0.3   0.3   0.3   3.2   4.1   0.0   0.0   0.1   0.5   0.6   0.5   0.5  0.60  0.81  0.55  0.00  0.00   67.49   91.29    4.23    0.00    0.93
 1991 319   135    55     3    14.3   28.8   16579   19.7    9.1   0.4   0.4   0.3   0.3   0.3   0.3   2.8   4.1   0.0   0.0   0.1   0.5   0.6   0.5   0.5  0.59  0.76  0.54  0.00  0.00   68.05   91.75    4.23    0.00    0.93
 1991 320   136    55     3    14.3   27.8   16579   18.9    8.9   0.4   0.4   0.3   0.3   0.3   0.3   2.5   4.1   0.0   0.0   0.1   0.5   0.6   0.5   0.5  0.58  0.72  0.54  0.00  0.00   68.62   92.22    4.23    0.00    0.94
 1991 321   137    55     3    14.3   27.0   16578   18.3    8.8   0.4   0.4   0.3   0.3   0.3   0.3   2.2   4.1   0.0   0.0   0.1   0.5   0.6   0.5   0.5  0.58  0.68  0.54  0.00  0.00   69.23   92.72    4.23    0.00    0.94
 1991 322   138    55     3    14.3   26.3   16578   17.7    8.7   0.4   0.4   0.3   0.3   0.3   0.3   1.9   4.1   0.0   0.0   0.1   0.5   0.6   0.5   0.5  0.57  0.65  0.54  0.00  0.00   69.87   93.25    4.23    0.00    0.94
 1991 323   139    55     3    14.3   25.7   16577   17.1    8.6   0.3   0.4   0.3   0.3   0.3   0.3   1.7   4.1   0.0   0.0   0.2   0.5   0.6   0.5   0.5  0.57  0.62  0.53  0.00  0.00   70.53   93.74    4.24    0.00    0.94
 1991 324   140    55     3    14.3   25.2   16577   16.7    8.5   0.5   0.4   0.3   0.3   0.3   0.3   1.5   4.2   0.0   0.0   0.1   0.5   0.6   0.5   0.5  0.57  0.59  0.53  0.00  0.00   71.16   94.34    4.24    0.00    0.95
 1991 325   141    55     3    14.3   24.6   16576   16.3    8.4   0.4   0.4   0.3   0.3   0.3   0.3   1.3   4.2   0.0   0.0   0.1   0.5   0.6   0.5   0.5  0.56  0.57  0.52  0.00  0.00   71.78   94.87    4.24    0.00    0.95
 1991 326   142    55     3    14.3   24.2   16576   15.9    8.3   0.4   0.4   0.3   0.3   0.3   0.3   1.2   4.2   0.0   0.0   0.1   0.5   0.6   0.5   0.5  0.56  0.56  0.51  0.00  0.00   72.39   95.44    4.24    0.00    0.95
 1991 327   143    55     3    14.3   23.8   16575   15.7    8.1   0.2   0.4   0.4   0.3   0.3   0.3   1.0   4.2   0.0   0.0   0.1   0.5   0.6   0.5   0.5  0.56  0.54  0.50  0.00  0.00   73.01   96.02    4.24    0.00    0.95
 1991 328   144    55     3    14.3   23.5   16574   15.2    8.3   0.2   0.2   0.3   0.3   0.3   0.3   0.9   4.2   0.0   0.0   0.2   0.6   0.6   0.5   0.5  0.56  0.53  0.48  0.00  0.00   73.67   96.39    4.24    0.00    0.96
 1991 329   145    55     3    14.3   23.3   16574   14.8    8.6   0.2   0.2   0.3   0.3   0.3   0.3   0.8   4.2   0.0   0.0   0.3   0.7   0.7   0.5   0.5  0.55  0.52  0.47  0.00  0.00   74.33   96.63    4.24    0.00    0.96
 1991 330   146    55     3    14.3   23.3   16573   14.9    8.4   0.6   0.3   0.3   0.3   0.3   0.3   0.7   4.2   0.0   0.0   0.1   0.7   0.7   0.5   0.5  0.55  0.51  0.46  0.00  0.00   74.99   97.15    4.24    0.00    0.96
 1991 331   147    55     3    14.3   22.9   16573   14.8    8.1   0.3   0.4   0.3   0.3   0.3   0.3   0.6   4.3   0.0   0.0   0.1   0.5   0.6   0.5   0.5  0.55  0.50  0.45  0.00  0.00   75.61   97.70    4.24    0.00    0.96
 1991 332   148    55     3    14.3   22.6   16572   14.7    8.0   0.3   0.4   0.3   0.3   0.3   0.3   0.6   4.3   0.0   0.0   0.1   0.5   0.6   0.5   0.5  0.55  0.49  0.44  0.00  0.00   76.20   98.20    4.24    0.00    0.96
 1991 333   149    55     3    14.3   22.5   16572   14.3    8.2   0.3   0.3   0.3   0.3   0.3   0.3   0.5   4.3   0.0   0.0   0.2   0.6   0.6   0.5   0.5  0.55  0.48  0.43  0.00  0.00   76.81   98.46    4.24    0.00    0.97
 1991 334   150    55     3    14.3   22.5   16571   14.6    7.9   0.5   0.4   0.3   0.3   0.3   0.3   0.5   4.3   0.0   0.0   0.1   0.5   0.6   0.5   0.5  0.55  0.48  0.42  0.00  0.00   77.47   99.13    4.24    0.00    0.97
 1991 335   151    55     3    14.3   21.7   16570   13.9    7.8   0.4   0.4   0.3   0.3   0.3   0.3   0.4   4.1   0.0   0.0   0.1   0.5   0.6   0.5   0.5  0.54  0.47  0.41  0.00  0.00   78.15   99.70    4.24    0.00    0.97
 1991 336   152    55     3    14.3   21.0   16570   13.2    7.8   0.4   0.4   0.3   0.3   0.3   0.3   0.4   3.8   0.0   0.0   0.1   0.5   0.6   0.5   0.5  0.54  0.46  0.40  0.00  0.00   78.86  100.31    4.24    0.00    0.97
 1991 337   153    55     3    14.3   20.3   16569   12.6    7.7   0.4   0.4   0.3   0.3   0.3   0.3   0.3   3.6   0.0   0.0   0.1   0.5   0.6   0.5   0.5  0.54  0.46  0.40  0.00  0.00   79.56  100.92    4.24    0.00    0.98
[...]
 1995 303   119    55     3     0.0  116.9   16590  104.9   12.1   7.6  16.7  16.4  12.7   6.7   2.0   2.3   1.8   0.0   0.0   0.1   0.5   0.9   0.5   0.5  1.66  0.39  0.16  0.00  0.00   56.67   93.77    0.07    0.00    1.06
 1995 304   120    55     3     0.0  114.3   16589  102.4   12.0   3.4  14.7  17.9  12.5   6.6   2.0   2.3   1.8   0.0   0.0   0.1   0.5   0.9   0.5   0.5  1.66  0.39  0.16  0.00  0.00   57.09   94.21    0.07    0.00    1.08
 1995 305   121    55     3     0.0  110.6   16589   98.6   12.0   3.2  13.7  16.8  12.2   6.5   2.0   2.3   1.8   0.0   0.0   0.1   0.6   0.9   0.5   0.5  1.64  0.39  0.16  0.00  0.00   57.62   94.59    0.07    0.00    1.09
 1995 306   122    55     3     0.0  105.6   16588   93.7   11.9   3.0  12.5  15.4  11.9   6.3   2.0   2.3   1.9   0.0   0.0   0.1   0.5   0.9   0.5   0.5  1.63  0.39  0.16  0.00  0.00   58.20   95.13    0.07    0.00    1.11
 1995 307   123    55     3     0.0  100.0   16588   88.2   11.7   2.8  11.2  13.8  11.5   6.1   1.9   2.3   1.9   0.0   0.0   0.1   0.5   0.8   0.5   0.5  1.61  0.39  0.16  0.00  0.00   58.83   95.74    0.07    0.00    1.13
 1995 308   124    55     3     0.0   93.3   16587   81.8   11.5   2.5   9.8  11.9  10.9   5.8   1.9   2.4   1.9   0.0   0.0   0.1   0.5   0.8   0.5   0.5  1.58  0.39  0.16  0.00  0.00   59.50   96.41    0.07    0.00    1.16
 1995 309   125    55     3     0.0   85.7   16586   74.5   11.2   2.1   8.2   9.9  10.2   5.5   1.8   2.4   1.9   0.0   0.0   0.1   0.5   0.8   0.5   0.5  1.54  0.39  0.16  0.00  0.00   60.19   97.14    0.07    0.00    1.17
 1995 310   126    55     3     0.0   78.8   16586   67.9   10.9   1.4   7.1   8.2   9.6   5.2   1.8   2.4   1.9   0.0   0.0   0.1   0.4   0.7   0.5   0.5  1.50  0.38  0.16  0.00  0.00   60.90   97.88    0.07    0.00    1.19
 1995 311   127    55     3     0.0   77.4   16585   66.6   10.8   0.6   3.5   7.1  10.1   7.2   1.8   2.4   1.9   0.0   0.0   0.1   0.4   0.7   0.5   0.5  1.49  0.38  0.15  0.00  0.00   61.64   98.61    0.07    0.00    1.21
 1995 312   128    55     3     0.0   75.4   16584   64.2   11.2   0.3   2.4   5.8   8.5   7.4   2.6   2.5   1.9   0.0   0.0   0.2   0.6   0.8   0.5   0.5  1.46  0.38  0.15  0.00  0.00   62.44   98.81    0.07    0.00    1.22
 1995 313   129    55     3     0.1   73.7   16583   62.0   11.7   0.3   2.2   5.3   8.0   7.2   2.6   2.6   2.0   0.0   0.0   0.3   0.7   0.9   0.5   0.6  1.45  0.39  0.16  0.00  0.00   63.20   98.94    0.07    0.00    1.24
 1995 314   130    55     3     0.7   71.4   16583   59.4   12.1   0.3   2.0   4.9   7.4   6.8   2.7   2.5   2.0   0.0   0.0   0.3   0.8   1.0   0.6   0.6  1.44  0.40  0.16  0.00  0.00   63.88   99.06    0.07    0.00    1.26
 1995 315   131    55     3     1.0   64.6   16582   52.8   11.8   0.6   1.6   3.6   6.4   6.0   2.5   2.5   2.0   0.0   0.0   0.1   0.8   1.0   0.6   0.6  1.39  0.41  0.16  0.00  0.00   64.51   99.38    0.07    0.00    1.26
 1995 316   132    55     3     1.1   59.7   16582   48.4   11.3   0.6   1.3   2.9   5.8   5.5   2.3   2.5   2.0   0.0   0.0   0.1   0.7   0.9   0.6   0.6  1.34  0.41  0.16  0.00  0.00   65.13   99.95    0.07    0.00    1.27
 1995 317   133    55     3     1.1   54.6   16581   43.8   10.8   0.5   1.1   2.1   5.2   5.0   2.1   2.5   2.0   0.0   0.0   0.1   0.6   0.8   0.6   0.6  1.29  0.42  0.17  0.00  0.00   65.73  100.45    0.07    0.00    1.27
 1995 318   134    55     3     1.1   50.6   16581   40.1   10.5   0.5   0.9   1.5   4.6   4.5   2.0   2.5   2.0   0.0   0.0   0.1   0.5   0.7   0.6   0.6  1.24  0.42  0.17  0.00  0.00   66.33  100.92    0.08    0.00    1.27
 1995 319   135    55     3     1.1   44.7   16580   34.7   10.0   0.4   0.6   0.9   3.8   3.8   1.7   2.5   2.0   0.0   0.0   0.1   0.5   0.7   0.6   0.6  1.15  0.43  0.17  0.00  0.00   66.98  101.45    0.08    0.00    1.28
 1995 320   136    55     3     1.1   38.8   16579   29.3    9.4   0.1   0.2   0.3   2.3   3.4   1.6   2.5   2.1   0.0   0.0   0.1   0.5   0.6   0.6   0.5  1.05  0.44  0.17  0.00  0.00   67.64  101.97    0.08    0.00    1.28
 1995 321   137    55     3     1.7   37.3   16579   27.5    9.8   0.1   0.2   0.3   2.0   3.0   1.5   2.4   2.1   0.0   0.0   0.2   0.6   0.7   0.6   0.6  1.02  0.44  0.17  0.00  0.00   68.28  102.05    0.09    0.00    1.28
 1995 322   138    55     3     1.9   33.6   16578   24.1    9.5   0.4   0.3   0.3   1.5   2.3   1.3   2.4   2.1   0.0   0.0   0.1   0.6   0.7   0.6   0.6  0.94  0.45  0.18  0.00  0.00   68.94  102.31    0.09    0.00    1.28
 1995 323   139    55     3     1.9   30.8   16578   21.9    8.9   0.4   0.4   0.3   1.2   1.8   1.1   2.4   2.1   0.0   0.0   0.1   0.5   0.6   0.6   0.6  0.87  0.46  0.18  0.00  0.00   69.61  102.85    0.09    0.00    1.29
 1995 324   140    55     3     1.9   28.3   16577   19.8    8.6   0.4   0.4   0.3   0.9   1.4   0.9   2.3   2.1   0.0   0.0   0.1   0.5   0.6   0.6   0.5  0.82  0.46  0.18  0.00  0.00   70.26  103.34    0.09    0.00    1.29
 1995 325   141    55     3     1.9   26.2   16576   17.8    8.4   0.4   0.4   0.3   0.7   1.1   0.7   2.2   2.1   0.0   0.0   0.1   0.5   0.6   0.5   0.5  0.77  0.47  0.18  0.00  0.00   70.92  103.81    0.10    0.00    1.29
 1995 326   142    55     3     1.9   24.3   16576   16.1    8.2   0.4   0.4   0.3   0.6   0.9   0.6   1.9   2.1   0.0   0.0   0.1   0.5   0.6   0.5   0.5  0.73  0.47  0.18  0.00  0.00   71.61  104.32    0.10    0.00    1.29
 1995 327   143    55     3     1.9   22.8   16575   14.7    8.1   0.4   0.4   0.3   0.5   0.7   0.5   1.7   2.1   0.0   0.0   0.1   0.5   0.6   0.5   0.5  0.70  0.48  0.19  0.00  0.00   72.31  104.82    0.10    0.00    1.30
 1995 328   144    55     3     1.9   21.4   16574   13.4    8.0   0.4   0.4   0.3   0.4   0.6   0.4   1.5   2.1   0.0   0.0   0.1   0.5   0.6   0.5   0.5  0.68  0.48  0.19  0.00  0.00   73.03  105.36    0.10    0.00    1.30
 1995 329   145    55     3     1.9   20.3   16574   12.4    7.9   0.4   0.4   0.3   0.3   0.5   0.4   1.4   2.1   0.0   0.0   0.1   0.5   0.6   0.5   0.5  0.66  0.47  0.19  0.00  0.00   73.75  105.92    0.10    0.00    1.30
 1995 330   146    55     3     1.9   19.4   16573   11.6    7.8   0.4   0.4   0.3   0.3   0.4   0.3   1.2   2.1   0.0   0.0   0.1   0.5   0.6   0.5   0.5  0.64  0.47  0.19  0.00  0.00   74.46  106.46    0.10    0.00    1.31
 1995 331   147    55     3     1.9   18.6   16573   10.9    7.7   0.4   0.4   0.3   0.3   0.4   0.3   1.1   2.1   0.0   0.0   0.1   0.5   0.6   0.5   0.5  0.63  0.47  0.19  0.00  0.00   75.15  107.00    0.10    0.00    1.31
 1995 332   148    55     3     1.9   18.1   16572   10.5    7.6   0.4   0.4   0.3   0.3   0.3   0.3   0.9   2.1   0.0   0.0   0.1   0.5   0.6   0.5   0.5  0.62  0.46  0.19  0.00  0.00   75.79  107.52    0.10    0.00    1.31
 1995 333   149    55     3     1.9   17.8   16571   10.2    7.5   0.4   0.4   0.3   0.3   0.3   0.3   0.8   2.1   0.0   0.0   0.1   0.5   0.6   0.5   0.5  0.61  0.46  0.20  0.00  0.00   76.43  108.04    0.10    0.00    1.31
 1995 334   150    55     3     1.9   17.5   16571   10.0    7.5   0.4   0.4   0.3   0.3   0.3   0.3   0.7   2.1   0.0   0.0   0.1   0.4   0.6   0.5   0.5  0.60  0.46  0.20  0.00  0.00   77.05  108.57    0.10    0.00    1.32
 1995 335   151    55     3     1.9   17.2   16570    9.8    7.4   0.4   0.4   0.3   0.3   0.3   0.3   0.7   2.1   0.0   0.0   0.1   0.4   0.6   0.5   0.5  0.59  0.45  0.20  0.00  0.00   77.67  109.11    0.10    0.00    1.32
 1995 336   152    55     3     1.9   17.0   16570    9.7    7.3   0.2   0.4   0.4   0.3   0.3   0.3   0.6   2.1   0.0   0.0   0.1   0.4   0.6   0.5   0.5  0.59  0.45  0.20  0.00  0.00   78.27  109.65    0.10    0.00    1.32
 1995 337   153    55     3     1.9   16.9   16569    9.3    7.5   0.2   0.3   0.3   0.3   0.3   0.3   0.5   2.1   0.0   0.0   0.2   0.5   0.6   0.5   0.5  0.58  0.44  0.20  0.00  0.00   79.02  110.03    0.10    0.00    1.32
 1995 338   154    55     3     1.9   16.9   16568    9.6    7.3   0.6   0.4   0.3   0.3   0.3   0.3   0.5   2.1   0.0   0.0   0.0   0.5   0.6   0.5   0.5  0.58  0.44  0.19  0.00  0.00   79.78  110.80    0.10    0.00    1.33
 1995 339   155    55     3     1.9   16.7   16568    9.4    7.3   0.3   0.4   0.3   0.3   0.3   0.3   0.4   2.1   0.0   0.0   0.2   0.5   0.6   0.5   0.5  0.57  0.43  0.19  0.00  0.00   80.53  111.38    0.10    0.00    1.33
 1995 340   156    55     3     1.9   16.6   16567    9.4    7.2   0.5   0.4   0.3   0.3   0.3   0.3   0.4   2.1   0.0   0.0   0.1   0.5   0.6   0.5   0.5  0.57  0.43  0.19  0.00  0.00   81.28  112.09    0.10    0.00    1.33
 1995 341   157    55     3     1.9   16.3   16566    9.2    7.1   0.4   0.4   0.3   0.3   0.3   0.3   0.3   2.1   0.0   0.0   0.1   0.5   0.6   0.5   0.5  0.57  0.42  0.19  0.00  0.00   82.02  112.76    0.10    0.00    1.34
 1995 342   158    55     3     1.9   15.9   16566    8.9    7.0   0.5   0.4   0.3   0.3   0.3   0.3   0.3   2.0   0.0   0.0   0.1   0.4   0.6   0.5   0.5  0.56  0.42  0.19  0.00  0.00   82.74  113.48    0.10    0.00    1.34
 1995 343   159    55     3     1.9   15.4   16565    8.5    6.9   0.1   0.4   0.4   0.3   0.3   0.3   0.3   1.9   0.0   0.0   0.1   0.4   0.6   0.5   0.5  0.56  0.41  0.18  0.00  0.00   83.38  114.07    0.10    0.00    1.34
 1995 344   160    55     3     1.9   15.0   16565    7.9    7.2   0.2   0.3   0.3   0.3   0.3   0.3   0.3   1.8   0.0   0.0   0.3   0.5   0.6   0.5   0.5  0.56  0.41  0.18  0.00  0.00   84.11  114.44    0.10    0.00    1.34
 1995 345   161    55     3     1.9   15.0   16564    8.0    7.0   0.5   0.4   0.3   0.3   0.3   0.3   0.3   1.7   0.0   0.0   0.0   0.5   0.6   0.5   0.5  0.56  0.40  0.18  0.00  0.00   84.83  115.19    0.10    0.00    1.34
 1995 346   162    55     3     1.9   14.5   16563    7.6    7.0   0.3   0.4   0.3   0.3   0.3   0.3   0.3   1.6   0.0   0.0   0.1   0.5   0.6   0.5   0.5  0.55  0.40  0.18  0.00  0.00   85.47  115.68    0.10    0.00    1.35
 1995 347   163    55     3     1.9   14.3   16563    7.3    7.0   0.3   0.4   0.3   0.3   0.3   0.3   0.3   1.5   0.0   0.0   0.3   0.5   0.6   0.5   0.4  0.55  0.39  0.18  0.00  0.00   86.10  116.16    0.10    0.00    1.35
 1995 348   164    55     3     1.9   14.1   16562    7.3    6.8   0.6   0.4   0.3   0.3   0.3   0.3   0.3   1.4   0.0   0.0   0.1   0.5   0.6   0.4   0.4  0.55  0.39  0.18  0.00  0.00   86.73  116.83    0.10    0.00    1.35
 1995 349   165    55     3     1.9   13.8   16562    7.0    6.8   0.3   0.4   0.3   0.3   0.3   0.3   0.3   1.3   0.0   0.0   0.1   0.5   0.6   0.4   0.4  0.55  0.38  0.17  0.00  0.00   87.36  117.36    0.10    0.00    1.36
 1995 350   166    55     3     1.9   13.5   16561    6.8    6.7   0.4   0.4   0.3   0.3   0.3   0.3   0.3   1.2   0.0   0.0   0.1   0.5   0.6   0.4   0.4  0.55  0.38  0.17  0.00  0.00   87.95  117.94    0.10    0.00    1.36
 1995 351   167    55     3     1.9   13.3   16561    6.7    6.6   0.2   0.4   0.4   0.3   0.3   0.3   0.3   1.1   0.0   0.0   0.1   0.4   0.5   0.4   0.4  0.54  0.38  0.17  0.00  0.00   88.54  118.54    0.10    0.00    1.36
 1995 352   168    55     3     1.9   13.2   16560    6.4    6.7   0.2   0.4   0.3   0.3   0.3   0.3   0.3   1.1   0.0   0.0   0.2   0.5   0.6   0.4   0.4  0.54  0.37  0.17  0.00  0.00   89.30  119.08    0.10    0.00    1.36
 1995 353   169    55     3     1.9   13.2   16559    6.6    6.5   0.7   0.5   0.3   0.3   0.3   0.3   0.3   1.0   0.0   0.0   0.0   0.4   0.6   0.4   0.4  0.54  0.37  0.17  0.00  0.00   90.10  119.94    0.10    0.00    1.37
 1995 354   170    55     3     1.9   12.8   16558    6.2    6.6   0.2   0.5   0.3   0.3   0.3   0.3   0.3   1.0   0.0   0.0   0.2   0.4   0.6   0.4   0.4  0.54  0.36  0.16  0.00  0.00   90.88  120.53    0.10    0.00    1.37
 1995 355   171    55     3     1.9   12.7   16558    6.3    6.4   0.6   0.5   0.3   0.3   0.3   0.3   0.3   0.9   0.0   0.0   0.0   0.4   0.6   0.4   0.4  0.54  0.36  0.16  0.00  0.00   91.63  121.38    0.10    0.00    1.37
 1995 356   172    55     3     1.9   12.4   16557    6.0    6.4   0.2   0.5   0.3   0.3   0.3   0.3   0.3   0.8   0.0   0.0   0.2   0.4   0.6   0.4   0.4  0.54  0.35  0.16  0.00  0.00   92.39  121.97    0.10    0.00    1.37
 1995 357   173    55     3     1.9   12.3   16557    6.0    6.3   0.7   0.4   0.3   0.3   0.3   0.3   0.3   0.8   0.0   0.0   0.0   0.4   0.6   0.4   0.4  0.54  0.35  0.16  0.00  0.00   93.10  122.75    0.10    0.00    1.37
 1995 358   174    55     3     1.9   12.0   16556    5.6    6.4   0.2   0.4   0.3   0.3   0.3   0.3   0.3   0.7   0.0   0.0   0.2   0.4   0.5   0.4   0.4  0.54  0.34  0.15  0.00  0.00   93.76  123.23    0.10    0.00    1.37
 1995 359   175    55     3     1.9   12.0   16555    5.7    6.3   0.6   0.4   0.3   0.3   0.3   0.3   0.3   0.7   0.0   0.0   0.1   0.4   0.5   0.4   0.4  0.54  0.34  0.15  0.00  0.00   94.39  123.89    0.10    0.00    1.37
 1995 360   176    55     3     1.9   11.7   16555    5.5    6.2   0.1   0.4   0.4   0.3   0.3   0.3   0.3   0.7   0.0   0.0   0.1   0.4   0.5   0.4   0.4  0.54  0.33  0.15  0.00  0.00   94.96  124.40    0.10    0.00    1.37
 1995 361   177    55     3     1.9   11.6   16554    5.2    6.4   0.2   0.3   0.3   0.3   0.3   0.3   0.3   0.6   0.0   0.0   0.1   0.6   0.6   0.4   0.4  0.54  0.33  0.15  0.00  0.00   95.62  124.80    0.10    0.00    1.37
 1995 362   178    55     3     1.9   11.7   16554    5.3    6.3   0.4   0.4   0.3   0.3   0.3   0.3   0.3   0.6   0.0   0.0   0.1   0.5   0.6   0.4   0.4  0.53  0.33  0.15  0.00  0.00   96.26  125.36    0.10    0.00    1.37
 1995 363   179    55     3     1.9   11.6   16553    5.3    6.3   0.4   0.4   0.3   0.3   0.3   0.3   0.3   0.6   0.0   0.0   0.1   0.5   0.6   0.4   0.4  0.53  0.32  0.14  0.00  0.00   96.90  125.92    0.10    0.00    1.38
 1995 364   180    55     3     1.9   11.4   16553    5.2    6.2   0.4   0.4   0.3   0.3   0.3   0.3   0.3   0.5   0.0   0.0   0.1   0.5   0.6   0.4   0.4  0.53  0.32  0.14  0.00  0.00   97.52  126.50    0.10    0.00    1.38
 1995 365   181    55     3     1.9   11.3   16552    5.2    6.1   0.2   0.4   0.4   0.3   0.3   0.3   0.3   0.5   0.0   0.0   0.1   0.4   0.5   0.4   0.4  0.53  0.32  0.14  0.00  0.00   98.11  127.10    0.10    0.00    1.38
 1996 001   182    55     3     1.9   11.2   16552    5.0    6.3   0.2   0.4   0.3   0.3   0.3   0.3   0.3   0.5   0.0   0.0   0.2   0.5   0.6   0.4   0.4  0.53  0.31  0.14  0.00  0.00   98.85  127.60    0.10    0.00    1.39
 1996 002   183    55     3     1.9   11.3   16551    5.2    6.1   0.7   0.4   0.3   0.3   0.3   0.3   0.3   0.4   0.0   0.0   0.0   0.5   0.6   0.4   0.4  0.53  0.31  0.14  0.00  0.00   99.58  128.37    0.10    0.00    1.39
 1996 003   184    55     3     1.9   11.1   16550    4.9    6.2   0.0   0.5   0.4   0.3   0.3   0.3   0.3   0.4   0.0   0.0   0.2   0.5   0.6   0.4   0.3  0.53  0.31  0.14  0.00  0.00  100.30  128.90    0.10    0.00    1.39
 1996 004   185    55     3     1.9   11.0   16550    4.8    6.2   0.4   0.3   0.3   0.3   0.3   0.3   0.3   0.4   0.0   0.0   0.0   0.6   0.6   0.4   0.3  0.53  0.30  0.13  0.00  0.00  101.07  129.51    0.10    0.00    1.39
 1996 005   186    55     3     1.9   11.0   16549    4.9    6.2   0.2   0.5   0.3   0.3   0.3   0.3   0.3   0.4   0.0   0.0   0.2   0.5   0.6   0.4   0.3  0.53  0.30  0.13  0.00  0.00  101.82  130.10    0.10    0.00    1.39
 1996 006   187    55     3     1.9   11.0   16548    4.9    6.0   0.6   0.4   0.3   0.3   0.3   0.3   0.3   0.4   0.0   0.0   0.0   0.5   0.6   0.4   0.3  0.53  0.30  0.13  0.00  0.00  102.53  130.81    0.10    0.00    1.39
 1996 007   188    55     3     1.9   10.8   16548    4.7    6.0   0.3   0.4   0.3   0.3   0.3   0.3   0.3   0.3   0.0   0.0   0.2   0.5   0.6   0.4   0.3  0.53  0.29  0.13  0.00  0.00  103.21  131.35    0.10    0.00    1.40
 1996 008   189    55     3     1.9   10.7   16547    4.8    5.9   0.5   0.4   0.3   0.3   0.3   0.3   0.3   0.3   0.0   0.0   0.1   0.5   0.6   0.4   0.3  0.53  0.29  0.13  0.00  0.00  103.82  131.98    0.10    0.00    1.40
 1996 009   190    55     3     1.9   10.5   16547    4.6    5.9   0.1   0.4   0.4   0.3   0.3   0.3   0.3   0.3   0.0   0.0   0.1   0.4   0.5   0.4   0.3  0.53  0.29  0.13  0.00  0.00  104.36  132.49    0.10    0.00    1.40
 1996 010   191    55     3     1.9   10.5   16546    4.5    6.0   0.2   0.4   0.3   0.3   0.3   0.3   0.3   0.3   0.0   0.0   0.1   0.4   0.6   0.4   0.3  0.53  0.28  0.12  0.00  0.00  105.09  133.05    0.10    0.00    1.40
 1996 011   192    55     3     1.9   10.6   16546    4.7    5.9   0.3   0.3   0.4   0.4   0.3   0.3   0.3   0.3   0.0   0.0   0.1   0.5   0.6   0.4   0.3  0.53  0.28  0.12  0.00  0.00  105.83  133.70    0.10    0.00    1.41
 1996 012   193    55     3     1.9   10.7   16545    4.2    6.5   0.3   0.3   0.3   0.3   0.3   0.3   0.3   0.3   0.0   0.0   0.3   0.6   0.7   0.4   0.3  0.53  0.28  0.12  0.00  0.00  106.65  133.89    0.10    0.00    1.41
 1996 013   194    55     3     1.9   11.0   16544    4.7    6.3   0.7   0.5   0.3   0.3   0.3   0.3   0.3   0.3   0.0   0.0   0.0   0.5   0.7   0.4   0.3  0.53  0.27  0.12  0.00  0.00  107.48  134.60    0.10    0.00    1.41
 1996 014   195    55     3     1.9   10.8   16544    4.5    6.3   0.3   0.4   0.3   0.3   0.3   0.3   0.3   0.3   0.0   0.0   0.2   0.5   0.7   0.5   0.3  0.53  0.27  0.12  0.00  0.00  108.27  135.13    0.10    0.00    1.41
 1996 015   196    55     3     1.9   10.9   16543    4.6    6.3   0.5   0.4   0.3   0.3   0.3   0.3   0.3   0.3   0.0   0.0   0.1   0.5   0.6   0.5   0.3  0.53  0.27  0.12  0.00  0.00  109.01  135.74    0.10    0.00    1.41
 1996 016   197    55     3     1.9   10.8   16543    4.5    6.3   0.4   0.4   0.3   0.3   0.3   0.3   0.3   0.3   0.0   0.0   0.1   0.5   0.6   0.5   0.3  0.53  0.27  0.12  0.00  0.00  109.71  136.25    0.10    0.00    1.42
 1996 017   198    55     3     1.9   10.8   16542    4.5    6.3   0.4   0.4   0.3   0.3   0.3   0.3   0.3   0.3   0.0   0.0   0.1   0.5   0.6   0.5   0.3  0.53  0.26  0.12  0.00  0.00  110.41  136.78    0.10    0.00    1.42
 1996 018   199    55     3     1.9   10.8   16541    4.5    6.3   0.4   0.4   0.3   0.3   0.3   0.3   0.3   0.3   0.0   0.0   0.1   0.5   0.6   0.5   0.3  0.53  0.26  0.11  0.00  0.00  111.09  137.31    0.10    0.00    1.42
 1996 019   200    55     3     1.9   10.8   16541    4.5    6.3   0.4   0.4   0.3   0.3   0.3   0.3   0.3   0.3   0.0   0.0   0.1   0.5   0.6   0.5   0.3  0.53  0.26  0.11  0.00  0.00  111.74  137.85    0.10    0.00    1.43
 1996 020   201    55     3     1.9   10.7   16540    4.5    6.2   0.4   0.4   0.3   0.3   0.3   0.3   0.3   0.3   0.0   0.0   0.1   0.5   0.6   0.5   0.4  0.53  0.26  0.11  0.00  0.00  112.36  138.38    0.10    0.00    1.43
 1996 021   202    55     3     1.9   10.7   16540    4.5    6.2   0.2   0.4   0.4   0.3   0.3   0.3   0.3   0.3   0.0   0.0   0.1   0.4   0.6   0.5   0.4  0.53  0.26  0.11  0.00  0.00  112.94  138.89    0.10    0.00    1.43
 1996 022   203    55     3     1.9   10.7   16539    4.3    6.4   0.3   0.3   0.3   0.3   0.3   0.3   0.3   0.3   0.0   0.0   0.1   0.6   0.6   0.5   0.4  0.53  0.25  0.11  0.00  0.00  113.65  139.28    0.10    0.00    1.43
 1996 023   204    55     3     1.9   11.4   16539    5.0    6.5   0.5   0.5   0.4   0.3   0.3   0.3   0.3   0.3   0.0   0.0   0.1   0.5   0.7   0.5   0.4  0.53  0.25  0.11  0.00  0.00  114.38  139.93    0.10    0.00    1.43
 1996 024   205    55     3     1.9   12.1   16538    5.6    6.5   0.6   0.6   0.5   0.4   0.3   0.3   0.3   0.3   0.0   0.0   0.1   0.5   0.7   0.5   0.4  0.54  0.25  0.11  0.00  0.00  115.09  140.55    0.10    0.00    1.44
 1996 025   206    55     3     1.9   12.8   16538    6.3    6.6   0.8   0.8   0.6   0.4   0.3   0.3   0.3   0.3   0.0   0.0   0.1   0.5   0.8   0.5   0.4  0.54  0.25  0.11  0.00  0.00  115.77  141.20    0.10    0.00    1.44
