*SOIL N BALANCE - CERES SOIL N&C ROUTINES

*DSSAT Cropping System Model Ver. 4.0.2.000               Aug 11, 2016; 21:00:39

*RUN   1        : UYMZ                    
 MODEL          : MZCER040 - Maize           
 EXPERIMENT     : UYMZ0188 MZ    late to create DSS                             
 TREATMENT  1   : UYMZ                    



                                         INITIAL Year/Doy      FINAL Year/Doy
                                                 1992/224            1993/021
SOIL N BALANCE                                  -----------kg N/ha-----------

   Soil Humus N                                  16646.04            16549.21
   Soil Litter N                                     0.00               16.17
   N in Surface Residue                              0.00                0.00
   Soil NO3                                         74.81                5.88
   Soil NH4                                         23.95                8.17
   Soil Urea                                         0.00                0.00

   Added to / Removed from Soil:
   N in Harvest Residues from Previous Crop          0.00
   N from Organic Applications                       0.00
   N from senesced plant matter                     21.85
   Fertilizer N                                      2.00
   Leached NO3                                                           1.16
   N Denitrified                                                         0.03
   N Uptake From Soil                                                  186.97
   Ammonia volatilization                                                1.06

   Total N balance                               16768.65            16768.65

================================================================================

*DSSAT Cropping System Model Ver. 4.0.2.000               Aug 11, 2016; 21:00:39

*RUN   2        : UYMZ                    
 MODEL          : MZCER040 - Maize           
 EXPERIMENT     : UYMZ0188 MZ    late to create DSS                             
 TREATMENT  1   : UYMZ                    



                                         INITIAL Year/Doy      FINAL Year/Doy
                                                 1993/224            1994/026
SOIL N BALANCE                                  -----------kg N/ha-----------

   Soil Humus N                                  16646.04            16541.65
   Soil Litter N                                     0.00               12.85
   N in Surface Residue                              0.00                0.00
   Soil NO3                                         74.81                5.86
   Soil NH4                                         23.95                6.84
   Soil Urea                                         0.00                0.00

   Added to / Removed from Soil:
   N in Harvest Residues from Previous Crop          0.00
   N from Organic Applications                       0.00
   N from senesced plant matter                     17.55
   Fertilizer N                                      2.00
   Leached NO3                                                           5.42
   N Denitrified                                                         0.12
   N Uptake From Soil                                                  190.48
   Ammonia volatilization                                                1.12

   Total N balance                               16764.35            16764.35

================================================================================

*DSSAT Cropping System Model Ver. 4.0.2.000               Aug 11, 2016; 21:00:39

*RUN   3        : UYMZ                    
 MODEL          : MZCER040 - Maize           
 EXPERIMENT     : UYMZ0188 MZ    late to create DSS                             
 TREATMENT  1   : UYMZ                    



                                         INITIAL Year/Doy      FINAL Year/Doy
                                                 1994/224            1995/014
SOIL N BALANCE                                  -----------kg N/ha-----------

   Soil Humus N                                  16646.04            16552.20
   Soil Litter N                                     0.00               13.37
   N in Surface Residue                              0.00                0.00
   Soil NO3                                         74.81                5.51
   Soil NH4                                         23.95                5.68
   Soil Urea                                         0.00                0.00

   Added to / Removed from Soil:
   N in Harvest Residues from Previous Crop          0.00
   N from Organic Applications                       0.00
   N from senesced plant matter                     15.52
   Fertilizer N                                      2.00
   Leached NO3                                                           4.99
   N Denitrified                                                         0.91
   N Uptake From Soil                                                  178.50
   Ammonia volatilization                                                1.16

   Total N balance                               16762.32            16762.33

================================================================================

*DSSAT Cropping System Model Ver. 4.0.2.000               Aug 11, 2016; 21:00:39

*RUN   4        : UYMZ                    
 MODEL          : MZCER040 - Maize           
 EXPERIMENT     : UYMZ0188 MZ    late to create DSS                             
 TREATMENT  1   : UYMZ                    



                                         INITIAL Year/Doy      FINAL Year/Doy
                                                 1995/224            1996/018
SOIL N BALANCE                                  -----------kg N/ha-----------

   Soil Humus N                                  16646.04            16547.59
   Soil Litter N                                     0.00               14.82
   N in Surface Residue                              0.00                0.00
   Soil NO3                                         74.81                6.61
   Soil NH4                                         23.95                7.36
   Soil Urea                                         0.00                0.00

   Added to / Removed from Soil:
   N in Harvest Residues from Previous Crop          0.00
   N from Organic Applications                       0.00
   N from senesced plant matter                     20.48
   Fertilizer N                                      2.00
   Leached NO3                                                           2.31
   N Denitrified                                                         1.56
   N Uptake From Soil                                                  186.27
   Ammonia volatilization                                                0.75

   Total N balance                               16767.28            16767.28
