*SOIL WATER DAILY OUTPUT FILE

*DSSAT Cropping System Model Ver. 4.0.2.000               Aug 11, 2016; 20:47:44

*RUN   1        : UYSB                    
 MODEL          : CRGRO040 - Soybean         
 EXPERIMENT     : UYSB0173 SB    late to create DSS                             
 TREATMENT  1   : UYSB                    

@YEAR DOY   DAS  SWXD   ROFC   DRNC   PREC  IR#C  IRRC  DTWT   SW1D   SW2D   SW3D   SW4D   SW5D   SW6D   SW7D   SW8D   SW9D   SW10
 1990 220     0   116      0      0      0     0     0   125  0.347  0.394  0.394  0.335  0.375  0.419  0.408  0.395  0.000  0.000
 1990 221     1   116      0      0      2     0     0   125  0.357  0.393  0.394  0.335  0.376  0.418  0.408  0.395  0.000  0.000
 1990 222     2   114      0      0      2     0     0   125  0.329  0.392  0.394  0.336  0.376  0.418  0.408  0.395  0.000  0.000
 1990 223     3   113      0      0      2     0     0   125  0.310  0.390  0.394  0.336  0.377  0.417  0.408  0.395  0.000  0.000
 1990 224     4   112      0      0      2     0     0   125  0.294  0.389  0.394  0.337  0.377  0.417  0.408  0.395  0.000  0.000
 1990 225     5   112      0      0      2     0     0   125  0.280  0.388  0.394  0.337  0.378  0.416  0.408  0.395  0.000  0.000
 1990 226     6   111      0      0      2     0     0   125  0.267  0.387  0.394  0.338  0.378  0.416  0.408  0.395  0.000  0.000
 1990 227     7   137      0      0     30     0     0   125  0.539  0.515  0.394  0.338  0.378  0.415  0.408  0.395  0.000  0.000
 1990 228     8   134      0      0     30     0     0   125  0.458  0.517  0.398  0.339  0.378  0.415  0.408  0.395  0.000  0.000
 1990 229     9   131      0      0     30     0     0   125  0.430  0.499  0.402  0.339  0.379  0.415  0.408  0.395  0.000  0.000
 1990 230    10   129      0      0     30     0     0   125  0.404  0.484  0.404  0.340  0.379  0.414  0.408  0.395  0.000  0.000
 1990 231    11   128      0      0     30     0     0   125  0.395  0.472  0.406  0.340  0.379  0.414  0.407  0.395  0.000  0.000
 1990 232    12   127      0      0     30     0     0   125  0.387  0.463  0.408  0.341  0.380  0.414  0.407  0.395  0.000  0.000
 1990 233    13   126      0      0     30     0     0   125  0.381  0.455  0.409  0.342  0.380  0.413  0.407  0.395  0.000  0.000
 1990 234    14   125      0      0     30     0     0   125  0.375  0.448  0.410  0.342  0.380  0.413  0.407  0.395  0.000  0.000
 1990 235    15   124      0      0     30     0     0   125  0.369  0.442  0.411  0.343  0.380  0.413  0.407  0.395  0.000  0.000
 1990 236    16   123      0      0     30     0     0   125  0.363  0.437  0.411  0.343  0.380  0.412  0.407  0.395  0.000  0.000
 1990 237    17   123      0      0     30     0     0   125  0.358  0.433  0.412  0.344  0.381  0.412  0.407  0.395  0.000  0.000
 1990 238    18   122      0      0     30     0     0   125  0.353  0.429  0.412  0.345  0.381  0.412  0.407  0.395  0.000  0.000
 1990 239    19   163      0      0     72     0     0   125  0.546  0.564  0.528  0.345  0.381  0.411  0.407  0.395  0.000  0.000
 1990 240    20   161      0      0     74     0     0   125  0.502  0.557  0.535  0.349  0.381  0.411  0.407  0.395  0.000  0.000
 1990 241    21   158      0      0     74     0     0   125  0.472  0.534  0.536  0.354  0.381  0.411  0.407  0.395  0.000  0.000
 1990 242    22   155      0      0     74     0     0   125  0.445  0.520  0.529  0.358  0.382  0.411  0.407  0.395  0.000  0.000
 1990 243    23   154      0      0     74     0     0   125  0.456  0.509  0.522  0.362  0.382  0.410  0.406  0.395  0.000  0.000
 1990 244    24   155      0      0     77     0     0   125  0.500  0.502  0.517  0.365  0.382  0.410  0.406  0.395  0.000  0.000
 1990 245    25   154      0      0     77     0     0   125  0.472  0.504  0.512  0.368  0.383  0.410  0.406  0.395  0.000  0.000
 1990 246    26   153      0      0     77     0     0   125  0.463  0.500  0.508  0.371  0.383  0.410  0.406  0.395  0.000  0.000
 1990 247    27   152      0      0     77     0     0   125  0.458  0.495  0.505  0.373  0.383  0.409  0.406  0.395  0.000  0.000
 1990 248    28   151      0      0     77     0     0   125  0.454  0.491  0.502  0.375  0.384  0.409  0.406  0.395  0.000  0.000
 1990 249    29   151      0      0     78     0     0   125  0.470  0.487  0.499  0.376  0.384  0.409  0.406  0.394  0.000  0.000
 1990 250    30   158      0      0     86     0     0   125  0.555  0.517  0.496  0.378  0.385  0.409  0.406  0.394  0.000  0.000
 1990 251    31   175      0      0    104     0     0   125  0.526  0.572  0.566  0.394  0.385  0.408  0.406  0.394  0.000  0.000
 1990 252    32   170      0      0    104     0     0   125  0.450  0.553  0.553  0.415  0.386  0.408  0.406  0.394  0.000  0.000
 1990 253    33   168      0      0    104     0     0   125  0.455  0.526  0.544  0.423  0.387  0.408  0.406  0.394  0.000  0.000
 1990 254    34   190      0      0    128     0     0   125  0.540  0.565  0.563  0.470  0.413  0.408  0.405  0.394  0.000  0.000
 1990 255    35   186      0      0    128     0     0   125  0.476  0.555  0.554  0.456  0.432  0.412  0.405  0.394  0.000  0.000
 1990 256    36   184      0      0    128     0     0   125  0.475  0.530  0.548  0.449  0.432  0.419  0.407  0.394  0.000  0.000
 1990 257    37   181      0      1    128     0     0   125  0.464  0.521  0.541  0.445  0.432  0.419  0.408  0.395  0.000  0.000
 1990 258    38   180      0      1    128     0     0   125  0.465  0.515  0.536  0.442  0.432  0.419  0.408  0.395  0.000  0.000
 1990 259    39   178      0      1    128     0     0   125  0.466  0.511  0.532  0.439  0.432  0.419  0.408  0.395  0.000  0.000
 1990 260    40   177      0      1    128     0     0   125  0.467  0.507  0.529  0.438  0.432  0.419  0.408  0.395  0.000  0.000
 1990 261    41   207      0      2    160     0     0   125  0.544  0.565  0.565  0.469  0.460  0.431  0.416  0.398  0.000  0.000
 1990 262    42   196      0     10    160     0     0   125  0.485  0.556  0.556  0.456  0.449  0.426  0.413  0.397  0.000  0.000
 1990 263    43   190      0     15    160     0     0   125  0.500  0.532  0.549  0.449  0.442  0.423  0.411  0.397  0.000  0.000
 1990 264    44   186      0     17    160     0     0   125  0.492  0.526  0.543  0.445  0.437  0.422  0.411  0.397  0.000  0.000
 1990 265    45   183      0     18    160     0     0   125  0.469  0.522  0.539  0.442  0.435  0.422  0.411  0.397  0.000  0.000
 1990 266    46   181      0     18    160     0     0   125  0.469  0.516  0.535  0.440  0.433  0.422  0.411  0.397  0.000  0.000
 1990 267    47   180      0     18    160     0     0   125  0.470  0.511  0.531  0.439  0.433  0.422  0.411  0.397  0.000  0.000
 1990 268    48   179      0     18    160     0     0   125  0.470  0.508  0.529  0.438  0.433  0.422  0.411  0.397  0.000  0.000
 1990 269    49   179      0     18    160     0     0   125  0.470  0.505  0.526  0.437  0.433  0.422  0.411  0.397  0.000  0.000
 1990 270    50   178      0     18    160     0     0   125  0.470  0.503  0.524  0.436  0.433  0.422  0.411  0.397  0.000  0.000
 1990 271    51   177      0     18    160     0     0   125  0.470  0.501  0.522  0.435  0.433  0.422  0.411  0.397  0.000  0.000
 1990 272    52   176      0     18    160     0     0   125  0.470  0.500  0.520  0.434  0.433  0.422  0.411  0.397  0.000  0.000
 1990 273    53   176      0     18    160     0     0   125  0.470  0.498  0.518  0.433  0.432  0.422  0.411  0.397  0.000  0.000
 1990 274    54   175      0     18    160     0     0   125  0.469  0.497  0.517  0.432  0.432  0.422  0.411  0.397  0.000  0.000
 1990 275    55   175      0     18    160     0     0   125  0.469  0.496  0.515  0.431  0.432  0.422  0.411  0.397  0.000  0.000
 1990 276    56   174      0     18    160     0     0   125  0.468  0.494  0.514  0.430  0.432  0.422  0.411  0.397  0.000  0.000
 1990 277    57   174      0     18    160     0     0   125  0.468  0.493  0.512  0.430  0.431  0.422  0.411  0.397  0.000  0.000
 1990 278    58   173      0     18    160     0     0   125  0.468  0.492  0.511  0.429  0.431  0.422  0.411  0.397  0.000  0.000
 1990 279    59   195      0     19    184     0     0   125  0.531  0.567  0.567  0.444  0.433  0.421  0.411  0.398  0.000  0.000
 1990 280    60   198      0     19    189     0     0   125  0.543  0.563  0.568  0.453  0.438  0.422  0.412  0.398  0.000  0.000
 1990 281    61   221      1     32    228     0     0   125  0.515  0.568  0.568  0.470  0.460  0.447  0.439  0.432  0.000  0.000
 1990 282    62   202      1     46    228     0     0   125  0.447  0.546  0.557  0.457  0.449  0.436  0.427  0.417  0.000  0.000
 1990 283    63   191      1     54    228     0     0   125  0.450  0.523  0.548  0.449  0.442  0.429  0.419  0.408  0.000  0.000
 1990 284    64   185      1     59    228     0     0   125  0.456  0.515  0.540  0.445  0.437  0.425  0.415  0.403  0.000  0.000
 1990 285    65   215      1     61    266     0     0   125  0.471  0.567  0.563  0.469  0.460  0.447  0.439  0.416  0.000  0.000
 1990 286    66   199      1     74    266     0     0   125  0.445  0.534  0.555  0.457  0.449  0.436  0.427  0.408  0.000  0.000
 1990 287    67   190      1     81    266     0     0   125  0.460  0.519  0.545  0.449  0.442  0.429  0.419  0.403  0.000  0.000
 1990 288    68   185      1     85    266     0     0   125  0.464  0.514  0.539  0.445  0.437  0.425  0.415  0.400  0.000  0.000
 1990 289    69   182      1     88    266     0     0   125  0.467  0.511  0.535  0.441  0.435  0.423  0.412  0.398  0.000  0.000
 1990 290    70   180      1     89    266     0     0   125  0.469  0.508  0.531  0.439  0.433  0.421  0.410  0.398  0.000  0.000
 1990 291    71   179      1     89    266     0     0   125  0.471  0.506  0.528  0.438  0.433  0.421  0.410  0.398  0.000  0.000
 1990 292    72   183      1     89    274     0     0   125  0.498  0.535  0.526  0.437  0.433  0.421  0.410  0.398  0.000  0.000
 1990 293    73   185      1     89    279     0     0   125  0.535  0.538  0.529  0.436  0.433  0.421  0.410  0.398  0.000  0.000
 1990 294    74   183      1     89    279     0     0   125  0.499  0.535  0.531  0.436  0.433  0.421  0.410  0.398  0.000  0.000
 1990 295    75   182      1     89    279     0     0   125  0.499  0.524  0.530  0.435  0.433  0.421  0.410  0.398  0.000  0.000
 1990 296    76   181      1     89    279     0     0   125  0.494  0.519  0.529  0.435  0.433  0.421  0.410  0.398  0.000  0.000
 1990 297    77   180      1     89    279     0     0   125  0.491  0.516  0.527  0.434  0.433  0.421  0.410  0.398  0.000  0.000
 1990 298    78   179      1     89    279     0     0   125  0.488  0.513  0.526  0.433  0.432  0.421  0.410  0.398  0.000  0.000
 1990 299    79   179      1     89    279     0     0   125  0.486  0.510  0.524  0.433  0.432  0.421  0.410  0.398  0.000  0.000
 1990 300    80   178      1     89    279     0     0   125  0.484  0.508  0.522  0.432  0.432  0.421  0.410  0.398  0.000  0.000
 1990 301    81   177      1     89    279     0     0   125  0.483  0.506  0.521  0.432  0.431  0.421  0.410  0.398  0.000  0.000
 1990 302    82   180      1     89    285     0     0   125  0.514  0.517  0.519  0.431  0.431  0.421  0.410  0.398  0.000  0.000
 1990 303    83   194      1     89    306     0     0   125  0.438  0.568  0.568  0.457  0.439  0.422  0.411  0.398  0.000  0.000
 1990 304    84   186      1     94    306     0     0   125  0.434  0.530  0.557  0.449  0.436  0.422  0.410  0.397  0.000  0.000
 1990 305    85   186      1     94    308     0     0   125  0.486  0.516  0.546  0.449  0.438  0.422  0.411  0.398  0.000  0.000
 1990 306    86   183      1     96    308     0     0   125  0.470  0.516  0.539  0.444  0.435  0.421  0.410  0.398  0.000  0.000
 1990 307    87   181      1     97    308     0     0   125  0.469  0.513  0.535  0.441  0.434  0.421  0.410  0.398  0.000  0.000
 1990 308    88   208      1     97    341     0     0   125  0.488  0.566  0.564  0.469  0.460  0.439  0.422  0.403  0.000  0.000
 1990 309    89   194      1    107    341     0     0   125  0.444  0.537  0.555  0.457  0.449  0.431  0.417  0.400  0.000  0.000
 1990 310    90   187      1    113    341     0     0   125  0.460  0.520  0.545  0.449  0.442  0.426  0.413  0.398  0.000  0.000
 1990 311    91   187      1    113    343     0     0   125  0.496  0.514  0.539  0.445  0.440  0.425  0.415  0.400  0.000  0.000
 1990 312    92   183      1    116    343     0     0   125  0.480  0.516  0.535  0.442  0.437  0.423  0.412  0.398  0.000  0.000
 1990 313    93   181      1    117    343     0     0   125  0.478  0.513  0.532  0.439  0.434  0.421  0.411  0.398  0.000  0.000
 1990 314    94   180      1    117    343     0     0   125  0.477  0.510  0.529  0.439  0.433  0.422  0.411  0.398  0.000  0.000
 1990 315    95   179      1    117    343     0     0   125  0.476  0.508  0.527  0.437  0.433  0.422  0.411  0.398  0.000  0.000
 1990 316    96   179      1    117    343     0     0   125  0.476  0.505  0.525  0.436  0.433  0.422  0.411  0.398  0.000  0.000
 1990 317    97   178      1    117    343     0     0   125  0.475  0.504  0.523  0.435  0.433  0.422  0.411  0.398  0.000  0.000
 1990 318    98   178      1    117    345     0     0   125  0.495  0.502  0.521  0.434  0.433  0.422  0.411  0.398  0.000  0.000
 1990 319    99   178      1    117    345     0     0   125  0.485  0.504  0.520  0.433  0.432  0.422  0.411  0.398  0.000  0.000
 1990 320   100   219      1    124    398     0     0   125  0.494  0.567  0.567  0.469  0.460  0.447  0.439  0.432  0.000  0.000
 1990 321   101   200      1    138    398     0     0   125  0.432  0.539  0.557  0.457  0.448  0.436  0.427  0.417  0.000  0.000
 1990 322   102   191      1    146    398     0     0   125  0.453  0.520  0.546  0.449  0.441  0.429  0.419  0.408  0.000  0.000
 1990 323   103   185      1    151    398     0     0   125  0.459  0.513  0.539  0.445  0.437  0.425  0.415  0.403  0.000  0.000
 1990 324   104   182      1    153    398     0     0   125  0.463  0.510  0.534  0.441  0.435  0.423  0.412  0.400  0.000  0.000
 1990 325   105   181      1    154    400     0     0   125  0.489  0.507  0.531  0.439  0.434  0.422  0.412  0.400  0.000  0.000
 1990 326   106   180      1    155    400     0     0   125  0.479  0.508  0.528  0.438  0.433  0.422  0.411  0.398  0.000  0.000
 1990 327   107   179      1    155    400     0     0   125  0.477  0.507  0.526  0.437  0.433  0.422  0.411  0.398  0.000  0.000
 1990 328   108   178      1    155    400     0     0   125  0.475  0.505  0.524  0.436  0.433  0.422  0.411  0.398  0.000  0.000
 1990 329   109   178      1    155    400     0     0   125  0.475  0.503  0.522  0.435  0.433  0.422  0.411  0.398  0.000  0.000
 1990 330   110   192      1    155    421     0     0   125  0.466  0.566  0.566  0.446  0.435  0.422  0.411  0.398  0.000  0.000
 1990 331   111   184      1    159    421     0     0   125  0.429  0.533  0.556  0.443  0.434  0.422  0.410  0.397  0.000  0.000
 1990 332   112   182      1    160    421     0     0   125  0.449  0.517  0.546  0.441  0.434  0.422  0.410  0.397  0.000  0.000
 1990 333   113   181      1    160    421     0     0   125  0.457  0.511  0.538  0.441  0.434  0.422  0.410  0.397  0.000  0.000
 1990 334   114   180      1    160    421     0     0   125  0.461  0.508  0.534  0.440  0.434  0.422  0.410  0.397  0.000  0.000
 1990 335   115   179      1    160    421     0     0   125  0.464  0.506  0.530  0.439  0.434  0.422  0.410  0.397  0.000  0.000
 1990 336   116   178      1    160    421     0     0   125  0.466  0.503  0.527  0.438  0.434  0.422  0.410  0.397  0.000  0.000
 1990 337   117   184      1    160    431     0     0   125  0.488  0.547  0.527  0.437  0.433  0.422  0.410  0.397  0.000  0.000
 1990 338   118   182      1    160    431     0     0   125  0.498  0.526  0.529  0.436  0.433  0.422  0.410  0.397  0.000  0.000
 1990 339   119   181      1    160    431     0     0   125  0.493  0.520  0.528  0.435  0.433  0.422  0.410  0.397  0.000  0.000
 1990 340   120   216      1    162    473     0     0   125  0.498  0.564  0.566  0.469  0.460  0.447  0.439  0.415  0.000  0.000
 1990 341   121   217      2    217    536     0     0   125  0.457  0.559  0.568  0.470  0.460  0.447  0.439  0.432  0.000  0.000
 1990 342   122   200      2    231    536     0     0   125  0.445  0.529  0.556  0.457  0.449  0.436  0.427  0.417  0.000  0.000
 1990 343   123   191      2    239    536     0     0   125  0.456  0.517  0.545  0.449  0.442  0.429  0.419  0.408  0.000  0.000
 1990 344   124   221      2    275    606     0     0   125  0.543  0.567  0.563  0.470  0.460  0.447  0.439  0.432  0.000  0.000
 1990 345   125   202      2    289    606     0     0   125  0.439  0.557  0.554  0.457  0.449  0.436  0.427  0.417  0.000  0.000
 1990 346   126   191      2    298    606     0     0   125  0.445  0.527  0.547  0.449  0.442  0.429  0.419  0.408  0.000  0.000
 1990 347   127   185      2    302    606     0     0   125  0.456  0.516  0.540  0.445  0.437  0.425  0.415  0.403  0.000  0.000
 1990 348   128   182      2    305    606     0     0   125  0.460  0.511  0.535  0.442  0.435  0.423  0.412  0.400  0.000  0.000
 1990 349   129   179      2    306    606     0     0   125  0.463  0.507  0.531  0.439  0.433  0.421  0.410  0.398  0.000  0.000
 1990 350   130   179      2    306    606     0     0   125  0.465  0.505  0.528  0.438  0.433  0.421  0.410  0.398  0.000  0.000
 1990 351   131   178      2    306    606     0     0   125  0.466  0.502  0.525  0.437  0.433  0.421  0.410  0.398  0.000  0.000
 1990 352   132   206      2    307    642     0     0   125  0.451  0.566  0.565  0.469  0.460  0.438  0.422  0.403  0.000  0.000
 1990 353   133   194      2    317    642     0     0   125  0.444  0.531  0.556  0.456  0.449  0.431  0.417  0.400  0.000  0.000
 1990 354   134   187      2    322    642     0     0   125  0.457  0.517  0.545  0.449  0.442  0.426  0.413  0.398  0.000  0.000
 1990 355   135   183      2    325    642     0     0   125  0.462  0.512  0.538  0.444  0.437  0.423  0.411  0.398  0.000  0.000
 1990 356   136   208      2    326    670     0     0   125  0.534  0.567  0.563  0.469  0.460  0.432  0.419  0.401  0.000  0.000
 1990 357   137   195      2    334    670     0     0   125  0.453  0.553  0.555  0.457  0.449  0.427  0.415  0.399  0.000  0.000
 1990 358   138   205      2    335    684     0     0   125  0.521  0.559  0.568  0.470  0.455  0.429  0.418  0.402  0.000  0.000
 1990 359   139   192      2    343    684     0     0   125  0.431  0.543  0.557  0.457  0.445  0.425  0.414  0.399  0.000  0.000
 1990 360   140   186      2    348    684     0     0   125  0.453  0.521  0.547  0.449  0.440  0.422  0.412  0.397  0.000  0.000
 1990 361   141   182      2    350    684     0     0   125  0.459  0.514  0.539  0.445  0.436  0.421  0.410  0.397  0.000  0.000
 1990 362   142   181      2    350    684     0     0   125  0.463  0.510  0.535  0.442  0.434  0.421  0.410  0.397  0.000  0.000
 1990 363   143   179      2    351    684     0     0   125  0.466  0.507  0.531  0.439  0.433  0.421  0.410  0.397  0.000  0.000
 1990 364   144   178      2    351    684     0     0   125  0.467  0.505  0.528  0.438  0.433  0.421  0.410  0.397  0.000  0.000
 1990 365   145   178      2    351    684     0     0   125  0.468  0.503  0.525  0.437  0.433  0.421  0.410  0.397  0.000  0.000
 1991 001   146   177      2    351    684     0     0   125  0.469  0.501  0.523  0.436  0.433  0.421  0.410  0.397  0.000  0.000
 1991 002   147   177      2    351    684     0     0   125  0.469  0.500  0.521  0.435  0.433  0.421  0.410  0.397  0.000  0.000
 1991 003   148   176      2    351    684     0     0   125  0.469  0.498  0.519  0.434  0.432  0.421  0.410  0.397  0.000  0.000
 1991 004   149   175      2    351    684     0     0   125  0.469  0.497  0.517  0.433  0.432  0.421  0.410  0.397  0.000  0.000
 1991 005   150   175      2    351    684     0     0   125  0.469  0.496  0.516  0.432  0.432  0.421  0.410  0.397  0.000  0.000
 1991 006   151   174      2    351    684     0     0   125  0.469  0.495  0.515  0.431  0.431  0.421  0.410  0.397  0.000  0.000
 1991 007   152   174      2    351    684     0     0   125  0.469  0.494  0.513  0.430  0.431  0.421  0.410  0.397  0.000  0.000
 1991 008   153   173      2    351    684     0     0   125  0.469  0.493  0.512  0.430  0.431  0.421  0.410  0.397  0.000  0.000
 1991 009   154   173      2    351    684     0     0   125  0.468  0.492  0.511  0.429  0.430  0.421  0.410  0.397  0.000  0.000
 1991 010   155   174      2    351    690     0     0   125  0.480  0.501  0.510  0.428  0.430  0.421  0.410  0.397  0.000  0.000
 1991 011   156   174      2    351    690     0     0   125  0.480  0.499  0.509  0.427  0.430  0.421  0.410  0.397  0.000  0.000
 1991 012   157   173      2    351    690     0     0   125  0.478  0.497  0.509  0.427  0.429  0.421  0.410  0.397  0.000  0.000
 1991 013   158   173      2    351    690     0     0   125  0.477  0.496  0.509  0.426  0.429  0.421  0.410  0.397  0.000  0.000
 1991 014   159   172      2    351    690     0     0   125  0.476  0.494  0.508  0.426  0.428  0.421  0.410  0.397  0.000  0.000
 1991 015   160   172      2    351    690     0     0   125  0.474  0.493  0.507  0.425  0.428  0.421  0.410  0.397  0.000  0.000
 1991 016   161   171      2    351    690     0     0   125  0.473  0.492  0.507  0.425  0.428  0.421  0.410  0.397  0.000  0.000
 1991 017   162   171      2    351    690     0     0   125  0.472  0.491  0.506  0.424  0.427  0.421  0.410  0.397  0.000  0.000
 1991 018   163   171      2    351    690     0     0   125  0.471  0.490  0.505  0.424  0.427  0.421  0.410  0.397  0.000  0.000
 1991 019   164   170      2    351    690     0     0   125  0.470  0.489  0.504  0.423  0.427  0.421  0.410  0.397  0.000  0.000
 1991 020   165   170      2    351    690     0     0   125  0.470  0.489  0.504  0.423  0.426  0.421  0.410  0.397  0.000  0.000
 1991 021   166   219      2    353    744     0     0   125  0.519  0.567  0.567  0.469  0.460  0.447  0.439  0.418  0.000  0.000
 1991 022   167   215      2    357    752     0     0   125  0.441  0.559  0.568  0.470  0.460  0.446  0.439  0.428  0.000  0.000
 1991 023   168   199      2    371    752     0     0   125  0.446  0.528  0.556  0.457  0.449  0.435  0.427  0.415  0.000  0.000
 1991 024   169   190      2    378    752     0     0   125  0.456  0.516  0.545  0.449  0.442  0.429  0.419  0.407  0.000  0.000
 1991 025   170   185      2    383    752     0     0   125  0.461  0.512  0.539  0.445  0.437  0.425  0.415  0.402  0.000  0.000
 1991 026   171   182      2    385    752     0     0   125  0.464  0.509  0.535  0.441  0.435  0.422  0.412  0.399  0.000  0.000
 1991 027   172   179      2    386    752     0     0   125  0.467  0.507  0.531  0.439  0.433  0.421  0.410  0.398  0.000  0.000
 1991 028   173   179      2    386    752     0     0   125  0.469  0.505  0.528  0.438  0.433  0.421  0.410  0.398  0.000  0.000

*DSSAT Cropping System Model Ver. 4.0.2.000               Aug 11, 2016; 20:47:44

*RUN   2        : UYSB                    
 MODEL          : CRGRO040 - Soybean         
 EXPERIMENT     : UYSB0173 SB    late to create DSS                             
 TREATMENT  1   : UYSB                    

@YEAR DOY   DAS  SWXD   ROFC   DRNC   PREC  IR#C  IRRC  DTWT   SW1D   SW2D   SW3D   SW4D   SW5D   SW6D   SW7D   SW8D   SW9D   SW10
 1991 220     0   116      0      0      0     0     0   125  0.348  0.394  0.394  0.335  0.375  0.419  0.408  0.395  0.000  0.000
 1991 221     1   115      0      0      0     0     0   125  0.338  0.393  0.394  0.335  0.376  0.418  0.408  0.395  0.000  0.000
 1991 222     2   114      0      0      0     0     0   125  0.322  0.391  0.394  0.336  0.376  0.418  0.408  0.395  0.000  0.000
 1991 223     3   113      0      0      0     0     0   125  0.295  0.390  0.394  0.336  0.377  0.417  0.408  0.395  0.000  0.000
 1991 224     4   111      0      0      0     0     0   125  0.265  0.389  0.394  0.337  0.377  0.417  0.408  0.395  0.000  0.000
 1991 225     5   110      0      0      0     0     0   125  0.245  0.388  0.394  0.337  0.378  0.416  0.408  0.395  0.000  0.000
 1991 226     6   109      0      0      0     0     0   125  0.228  0.386  0.394  0.338  0.378  0.416  0.408  0.395  0.000  0.000
 1991 227     7   108      0      0      0     0     0   125  0.222  0.385  0.394  0.338  0.378  0.415  0.408  0.395  0.000  0.000
 1991 228     8   108      0      0      0     0     0   125  0.222  0.384  0.394  0.339  0.378  0.415  0.408  0.395  0.000  0.000
 1991 229     9   108      0      0      0     0     0   125  0.222  0.383  0.394  0.339  0.379  0.415  0.408  0.395  0.000  0.000
 1991 230    10   108      0      0      0     0     0   125  0.222  0.382  0.393  0.340  0.379  0.414  0.408  0.395  0.000  0.000
 1991 231    11   108      0      0      0     0     0   125  0.222  0.382  0.393  0.340  0.379  0.414  0.407  0.395  0.000  0.000
 1991 232    12   108      0      0      0     0     0   125  0.221  0.381  0.393  0.340  0.380  0.414  0.407  0.395  0.000  0.000
 1991 233    13   108      0      0      0     0     0   125  0.221  0.380  0.393  0.341  0.380  0.413  0.407  0.395  0.000  0.000
 1991 234    14   108      0      0      0     0     0   125  0.221  0.379  0.393  0.341  0.380  0.413  0.407  0.395  0.000  0.000
 1991 235    15   107      0      0      0     0     0   125  0.221  0.378  0.393  0.342  0.380  0.413  0.407  0.395  0.000  0.000
 1991 236    16   107      0      0      0     0     0   125  0.221  0.378  0.393  0.342  0.380  0.412  0.407  0.395  0.000  0.000
 1991 237    17   107      0      0      0     0     0   125  0.221  0.377  0.393  0.343  0.381  0.412  0.407  0.395  0.000  0.000
 1991 238    18   107      0      0      0     0     0   125  0.221  0.376  0.393  0.343  0.381  0.412  0.407  0.395  0.000  0.000
 1991 239    19   109      0      0      2     0     0   125  0.261  0.376  0.392  0.344  0.381  0.411  0.407  0.395  0.000  0.000
 1991 240    20   108      0      0      2     0     0   125  0.245  0.375  0.392  0.344  0.381  0.411  0.407  0.395  0.000  0.000
 1991 241    21   107      0      0      2     0     0   125  0.231  0.375  0.392  0.344  0.381  0.411  0.407  0.395  0.000  0.000
 1991 242    22   107      0      0      2     0     0   125  0.221  0.374  0.392  0.345  0.381  0.411  0.407  0.395  0.000  0.000
 1991 243    23   109      0      0      4     0     0   125  0.261  0.374  0.392  0.345  0.381  0.410  0.406  0.395  0.000  0.000
 1991 244    24   122      0      0     19     0     0   125  0.516  0.377  0.392  0.346  0.382  0.410  0.406  0.395  0.000  0.000
 1991 245    25   121      0      0     19     0     0   125  0.482  0.385  0.392  0.346  0.382  0.410  0.406  0.395  0.000  0.000
 1991 246    26   118      0      0     19     0     0   125  0.421  0.391  0.392  0.346  0.382  0.410  0.406  0.395  0.000  0.000
 1991 247    27   115      0      0     19     0     0   125  0.360  0.392  0.392  0.347  0.382  0.409  0.406  0.395  0.000  0.000
 1991 248    28   113      0      0     19     0     0   125  0.324  0.391  0.392  0.347  0.382  0.409  0.406  0.394  0.000  0.000
 1991 249    29   112      0      0     19     0     0   125  0.301  0.390  0.393  0.347  0.382  0.409  0.406  0.394  0.000  0.000
 1991 250    30   118      0      0     27     0     0   125  0.431  0.388  0.393  0.348  0.382  0.408  0.406  0.394  0.000  0.000
 1991 251    31   117      0      0     27     0     0   125  0.403  0.390  0.393  0.348  0.382  0.408  0.406  0.394  0.000  0.000
 1991 252    32   114      0      0     27     0     0   125  0.338  0.390  0.393  0.348  0.382  0.408  0.405  0.394  0.000  0.000
 1991 253    33   112      0      0     27     0     0   125  0.311  0.389  0.393  0.349  0.382  0.408  0.405  0.394  0.000  0.000
 1991 254    34   111      0      0     27     0     0   125  0.292  0.388  0.393  0.349  0.382  0.407  0.405  0.394  0.000  0.000
 1991 255    35   110      0      0     27     0     0   125  0.276  0.387  0.393  0.349  0.382  0.407  0.405  0.394  0.000  0.000
 1991 256    36   109      0      0     27     0     0   125  0.262  0.386  0.393  0.350  0.382  0.407  0.405  0.394  0.000  0.000
 1991 257    37   108      0      0     27     0     0   125  0.249  0.384  0.393  0.350  0.382  0.406  0.405  0.394  0.000  0.000
 1991 258    38   124      0      0     44     0     0   125  0.546  0.394  0.393  0.350  0.382  0.406  0.404  0.394  0.000  0.000
 1991 259    39   124      0      0     47     0     0   125  0.489  0.423  0.394  0.350  0.382  0.406  0.404  0.394  0.000  0.000
 1991 260    40   136      0      0     60     0     0   125  0.527  0.518  0.395  0.351  0.382  0.406  0.404  0.394  0.000  0.000
 1991 261    41   189      1      0    118     0     0   125  0.478  0.564  0.572  0.470  0.427  0.405  0.404  0.393  0.000  0.000
 1991 262    42   185      1      0    118     0     0   125  0.453  0.533  0.560  0.457  0.431  0.419  0.404  0.393  0.000  0.000
 1991 263    43   182      1      1    118     0     0   125  0.449  0.519  0.548  0.449  0.431  0.419  0.408  0.395  0.000  0.000
 1991 264    44   179      1      2    118     0     0   125  0.452  0.512  0.539  0.445  0.431  0.419  0.408  0.395  0.000  0.000
 1991 265    45   178      1      2    118     0     0   125  0.455  0.508  0.534  0.441  0.431  0.419  0.408  0.395  0.000  0.000
 1991 266    46   177      1      3    118     0     0   125  0.457  0.504  0.530  0.439  0.431  0.419  0.408  0.395  0.000  0.000
 1991 267    47   176      1      3    118     0     0   125  0.459  0.501  0.526  0.438  0.431  0.419  0.408  0.395  0.000  0.000
 1991 268    48   175      1      3    118     0     0   125  0.460  0.499  0.523  0.436  0.430  0.419  0.408  0.395  0.000  0.000
 1991 269    49   174      1      3    118     0     0   125  0.460  0.496  0.520  0.435  0.430  0.419  0.408  0.395  0.000  0.000
 1991 270    50   173      1      3    118     0     0   125  0.460  0.494  0.518  0.434  0.430  0.418  0.408  0.395  0.000  0.000
 1991 271    51   172      1      3    118     0     0   125  0.459  0.492  0.515  0.432  0.429  0.418  0.407  0.395  0.000  0.000
 1991 272    52   171      1      3    118     0     0   125  0.459  0.490  0.513  0.431  0.429  0.418  0.407  0.395  0.000  0.000
 1991 273    53   170      1      3    118     0     0   125  0.458  0.489  0.511  0.430  0.429  0.418  0.407  0.395  0.000  0.000
 1991 274    54   169      1      3    118     0     0   125  0.457  0.487  0.509  0.429  0.428  0.418  0.407  0.395  0.000  0.000
 1991 275    55   168      1      3    118     0     0   125  0.456  0.485  0.507  0.428  0.428  0.417  0.407  0.394  0.000  0.000
 1991 276    56   167      1      3    118     0     0   125  0.455  0.484  0.505  0.426  0.427  0.417  0.407  0.394  0.000  0.000
 1991 277    57   167      1      3    118     0     0   125  0.454  0.482  0.504  0.425  0.427  0.417  0.407  0.394  0.000  0.000
 1991 278    58   166      1      3    118     0     0   125  0.453  0.481  0.502  0.425  0.426  0.417  0.407  0.394  0.000  0.000
 1991 279    59   189      1      3    143     0     0   125  0.528  0.567  0.560  0.437  0.426  0.417  0.407  0.394  0.000  0.000
 1991 280    60   208      1      3    165     0     0   125  0.528  0.561  0.567  0.470  0.461  0.435  0.418  0.399  0.000  0.000
 1991 281    61   194      1     12    165     0     0   125  0.460  0.546  0.556  0.457  0.448  0.428  0.414  0.397  0.000  0.000
 1991 282    62   186      1     17    165     0     0   125  0.451  0.524  0.546  0.449  0.441  0.424  0.411  0.397  0.000  0.000
 1991 283    63   182      1     19    165     0     0   125  0.455  0.514  0.538  0.444  0.437  0.422  0.410  0.397  0.000  0.000
 1991 284    64   179      1     20    165     0     0   125  0.457  0.508  0.533  0.440  0.434  0.422  0.409  0.397  0.000  0.000
 1991 285    65   178      1     20    165     0     0   125  0.458  0.503  0.528  0.439  0.432  0.421  0.409  0.397  0.000  0.000
 1991 286    66   176      1     20    165     0     0   125  0.457  0.499  0.524  0.437  0.432  0.421  0.409  0.396  0.000  0.000
 1991 287    67   180      1     20    172     0     0   125  0.525  0.511  0.521  0.436  0.431  0.421  0.409  0.396  0.000  0.000
 1991 288    68   213      1     21    208     0     0   125  0.527  0.573  0.568  0.469  0.460  0.443  0.424  0.403  0.000  0.000
 1991 289    69   228      4     74    282     0     0   125  0.553  0.565  0.585  0.491  0.460  0.447  0.439  0.432  0.000  0.000
 1991 290    70   208      4     91    282     0     0   125  0.495  0.555  0.567  0.469  0.448  0.436  0.426  0.417  0.000  0.000
 1991 291    71   194      4    101    282     0     0   125  0.455  0.531  0.554  0.456  0.440  0.428  0.419  0.408  0.000  0.000
 1991 292    72   185      4    106    282     0     0   125  0.447  0.516  0.542  0.448  0.436  0.424  0.414  0.402  0.000  0.000
 1991 293    73   180      4    108    282     0     0   125  0.446  0.508  0.534  0.442  0.433  0.421  0.411  0.399  0.000  0.000
 1991 294    74   176      4    109    282     0     0   125  0.445  0.500  0.527  0.438  0.431  0.420  0.410  0.397  0.000  0.000
 1991 295    75   174      4    109    282     0     0   125  0.443  0.494  0.521  0.436  0.430  0.419  0.409  0.397  0.000  0.000
 1991 296    76   175      4    109    285     0     0   125  0.493  0.491  0.518  0.434  0.430  0.419  0.409  0.397  0.000  0.000
 1991 297    77   173      4    109    285     0     0   125  0.471  0.495  0.516  0.433  0.429  0.418  0.409  0.396  0.000  0.000
 1991 298    78   172      4    109    285     0     0   125  0.461  0.493  0.513  0.431  0.428  0.418  0.409  0.396  0.000  0.000
 1991 299    79   169      4    109    285     0     0   125  0.452  0.487  0.508  0.429  0.427  0.417  0.408  0.396  0.000  0.000
 1991 300    80   167      4    109    285     0     0   125  0.446  0.483  0.505  0.427  0.426  0.416  0.407  0.396  0.000  0.000
 1991 301    81   165      4    109    285     0     0   125  0.442  0.480  0.503  0.425  0.425  0.415  0.407  0.395  0.000  0.000
 1991 302    82   164      4    109    285     0     0   125  0.439  0.477  0.500  0.424  0.424  0.415  0.406  0.395  0.000  0.000
 1991 303    83   178      4    109    301     0     0   125  0.557  0.558  0.506  0.423  0.423  0.415  0.406  0.395  0.000  0.000
 1991 304    84   177      4    109    302     0     0   125  0.541  0.547  0.516  0.422  0.423  0.414  0.406  0.395  0.000  0.000
 1991 305    85   173      4    109    302     0     0   125  0.492  0.536  0.519  0.421  0.421  0.413  0.405  0.394  0.000  0.000
 1991 306    86   168      4    109    302     0     0   125  0.459  0.516  0.515  0.420  0.419  0.412  0.404  0.394  0.000  0.000
 1991 307    87   163      4    109    302     0     0   125  0.429  0.502  0.510  0.418  0.418  0.411  0.403  0.393  0.000  0.000
 1991 308    88   158      4    109    302     0     0   125  0.417  0.487  0.503  0.416  0.415  0.409  0.402  0.393  0.000  0.000
 1991 309    89   155      4    109    302     0     0   125  0.410  0.476  0.496  0.413  0.413  0.407  0.401  0.392  0.000  0.000
 1991 310    90   161      4    109    311     0     0   125  0.553  0.481  0.493  0.412  0.412  0.406  0.400  0.392  0.000  0.000
 1991 311    91   156      4    109    311     0     0   125  0.471  0.493  0.489  0.410  0.410  0.405  0.399  0.391  0.000  0.000
 1991 312    92   152      4    109    311     0     0   125  0.431  0.485  0.486  0.408  0.409  0.404  0.398  0.390  0.000  0.000
 1991 313    93   147      4    109    311     0     0   125  0.408  0.472  0.479  0.405  0.406  0.403  0.397  0.389  0.000  0.000
 1991 314    94   143      4    109    311     0     0   125  0.395  0.462  0.474  0.403  0.404  0.401  0.396  0.389  0.000  0.000
 1991 315    95   140      4    109    311     0     0   125  0.385  0.453  0.469  0.400  0.402  0.400  0.395  0.388  0.000  0.000
 1991 316    96   135      4    109    311     0     0   125  0.377  0.443  0.462  0.397  0.400  0.399  0.394  0.387  0.000  0.000
 1991 317    97   132      4    109    311     0     0   125  0.369  0.436  0.456  0.395  0.398  0.398  0.393  0.386  0.000  0.000
 1991 318    98   130      4    109    311     0     0   125  0.361  0.432  0.454  0.394  0.398  0.397  0.392  0.386  0.000  0.000
 1991 319    99   128      4    109    311     0     0   125  0.354  0.428  0.449  0.392  0.396  0.396  0.392  0.385  0.000  0.000
 1991 320   100   125      4    109    311     0     0   125  0.348  0.423  0.442  0.390  0.394  0.395  0.390  0.384  0.000  0.000
 1991 321   101   121      4    109    311     0     0   125  0.342  0.418  0.435  0.387  0.392  0.393  0.389  0.383  0.000  0.000
 1991 322   102   117      4    109    311     0     0   125  0.336  0.412  0.427  0.384  0.389  0.391  0.387  0.381  0.000  0.000
 1991 323   103   112      4    109    311     0     0   125  0.331  0.406  0.420  0.380  0.386  0.388  0.384  0.379  0.000  0.000
 1991 324   104   108      4    109    311     0     0   125  0.325  0.401  0.414  0.377  0.383  0.386  0.382  0.377  0.000  0.000
 1991 325   105   103      4    109    311     0     0   125  0.319  0.396  0.408  0.373  0.379  0.382  0.379  0.375  0.000  0.000
 1991 326   106    98      4    109    311     0     0   125  0.313  0.391  0.402  0.369  0.375  0.379  0.376  0.372  0.000  0.000
 1991 327   107    93      4    109    311     0     0   125  0.307  0.386  0.397  0.365  0.371  0.376  0.373  0.369  0.000  0.000
 1991 328   108    92      4    109    311     0     0   125  0.301  0.385  0.396  0.363  0.370  0.375  0.372  0.368  0.000  0.000
 1991 329   109   172      4    109    393     0     0   125  0.552  0.566  0.567  0.469  0.426  0.374  0.371  0.368  0.000  0.000
 1991 330   110   199      5    109    424     0     0   125  0.537  0.564  0.564  0.468  0.459  0.440  0.394  0.367  0.000  0.000
 1991 331   111   198      5    109    427     0     0   125  0.523  0.561  0.558  0.462  0.456  0.435  0.410  0.369  0.000  0.000
 1991 332   112   190      5    111    427     0     0   125  0.486  0.540  0.547  0.450  0.444  0.427  0.409  0.395  0.000  0.000
 1991 333   113   194      5    111    434     0     0   125  0.546  0.550  0.544  0.447  0.442  0.425  0.413  0.397  0.000  0.000
 1991 334   114   184      5    114    434     0     0   125  0.471  0.540  0.538  0.441  0.435  0.421  0.409  0.396  0.000  0.000
 1991 335   115   178      5    114    434     0     0   125  0.472  0.516  0.529  0.437  0.431  0.419  0.408  0.395  0.000  0.000
 1991 336   116   171      5    114    434     0     0   125  0.439  0.502  0.519  0.433  0.428  0.416  0.406  0.394  0.000  0.000
 1991 337   117   167      5    114    434     0     0   125  0.430  0.492  0.513  0.430  0.426  0.415  0.405  0.394  0.000  0.000
 1991 338   118   162      5    114    434     0     0   125  0.423  0.479  0.503  0.425  0.422  0.412  0.403  0.393  0.000  0.000
 1991 339   119   174      5    114    450     0     0   125  0.546  0.551  0.505  0.423  0.421  0.411  0.402  0.392  0.000  0.000
 1991 340   120   167      5    114    450     0     0   125  0.467  0.533  0.507  0.420  0.418  0.409  0.401  0.392  0.000  0.000
 1991 341   121   163      5    114    450     0     0   125  0.472  0.508  0.503  0.418  0.416  0.407  0.400  0.391  0.000  0.000
 1991 342   122   156      5    114    450     0     0   125  0.428  0.494  0.496  0.414  0.413  0.405  0.398  0.390  0.000  0.000
 1991 343   123   170      5    114    466     0     0   125  0.564  0.558  0.505  0.413  0.412  0.404  0.398  0.390  0.000  0.000
 1991 344   124   182      5    114    484     0     0   125  0.505  0.555  0.567  0.451  0.420  0.403  0.397  0.389  0.000  0.000
 1991 345   125   177      5    114    484     0     0   125  0.485  0.532  0.553  0.443  0.430  0.406  0.396  0.388  0.000  0.000
 1991 346   126   175      5    114    484     0     0   125  0.494  0.521  0.542  0.440  0.430  0.408  0.395  0.388  0.000  0.000
 1991 347   127   178      5    114    494     0     0   125  0.508  0.558  0.538  0.439  0.430  0.406  0.394  0.387  0.000  0.000
 1991 348   128   190      5    114    508     0     0   125  0.562  0.556  0.567  0.460  0.439  0.409  0.394  0.387  0.000  0.000
 1991 349   129   189      5    114    509     0     0   125  0.546  0.556  0.560  0.458  0.443  0.412  0.394  0.386  0.000  0.000
 1991 350   130   193      5    114    517     0     0   125  0.516  0.564  0.564  0.466  0.448  0.417  0.393  0.386  0.000  0.000
 1991 351   131   192      5    114    523     0     0   125  0.513  0.554  0.562  0.463  0.450  0.420  0.396  0.385  0.000  0.000
 1991 352   132   185      5    115    523     0     0   125  0.472  0.531  0.548  0.450  0.440  0.418  0.407  0.394  0.000  0.000
 1991 353   133   205      5    115    549     0     0   125  0.526  0.560  0.560  0.468  0.459  0.434  0.417  0.398  0.000  0.000
 1991 354   134   201      5    116    553     0     0   125  0.503  0.551  0.553  0.460  0.455  0.431  0.422  0.403  0.000  0.000
 1991 355   135   188      5    123    553     0     0   125  0.473  0.528  0.542  0.449  0.443  0.425  0.415  0.399  0.000  0.000
 1991 356   136   183      5    125    553     0     0   125  0.473  0.517  0.535  0.443  0.437  0.422  0.412  0.397  0.000  0.000
 1991 357   137   214      5    127    592     0     0   125  0.518  0.560  0.560  0.467  0.458  0.446  0.438  0.409  0.000  0.000
 1991 358   138   196      5    139    592     0     0   125  0.467  0.536  0.547  0.453  0.445  0.433  0.425  0.403  0.000  0.000
 1991 359   139   185      5    144    592     0     0   125  0.453  0.518  0.537  0.445  0.438  0.426  0.417  0.399  0.000  0.000
 1991 360   140   184      5    145    597     0     0   125  0.525  0.508  0.528  0.439  0.435  0.423  0.416  0.401  0.000  0.000
 1991 361   141   176      5    146    597     0     0   125  0.452  0.510  0.521  0.436  0.431  0.419  0.411  0.398  0.000  0.000
 1991 362   142   171      5    147    597     0     0   125  0.441  0.495  0.513  0.431  0.428  0.417  0.408  0.397  0.000  0.000
 1991 363   143   165      5    147    597     0     0   125  0.432  0.483  0.504  0.427  0.425  0.415  0.406  0.396  0.000  0.000
 1991 364   144   161      5    147    597     0     0   125  0.424  0.474  0.497  0.423  0.422  0.413  0.405  0.395  0.000  0.000
 1991 365   145   157      5    147    597     0     0   125  0.417  0.466  0.491  0.420  0.420  0.411  0.404  0.394  0.000  0.000
 1992 001   146   155      5    147    597     0     0   125  0.411  0.461  0.488  0.418  0.418  0.410  0.403  0.394  0.000  0.000
 1992 002   147   171      5    147    617     0     0   125  0.524  0.562  0.497  0.416  0.417  0.409  0.402  0.393  0.000  0.000
 1992 003   148   165      5    147    617     0     0   125  0.468  0.533  0.503  0.413  0.415  0.407  0.401  0.393  0.000  0.000
 1992 004   149   157      5    147    617     0     0   125  0.432  0.506  0.498  0.411  0.412  0.405  0.400  0.392  0.000  0.000
 1992 005   150   152      5    147    617     0     0   125  0.425  0.487  0.491  0.407  0.409  0.403  0.398  0.391  0.000  0.000
 1992 006   151   148      5    147    617     0     0   125  0.417  0.475  0.485  0.405  0.407  0.402  0.397  0.390  0.000  0.000
 1992 007   152   144      5    147    617     0     0   125  0.410  0.464  0.478  0.402  0.404  0.400  0.395  0.389  0.000  0.000
 1992 008   153   139      5    147    617     0     0   125  0.402  0.453  0.470  0.399  0.401  0.398  0.394  0.388  0.000  0.000
 1992 009   154   135      5    147    617     0     0   125  0.394  0.443  0.463  0.396  0.399  0.397  0.392  0.387  0.000  0.000
 1992 010   155   132      5    147    617     0     0   125  0.386  0.436  0.456  0.393  0.397  0.395  0.391  0.386  0.000  0.000
 1992 011   156   127      5    147    617     0     0   125  0.378  0.428  0.447  0.390  0.394  0.394  0.390  0.385  0.000  0.000
 1992 012   157   123      5    147    617     0     0   125  0.371  0.422  0.438  0.387  0.392  0.392  0.388  0.384  0.000  0.000
 1992 013   158   119      5    147    617     0     0   125  0.364  0.416  0.429  0.384  0.389  0.390  0.386  0.382  0.000  0.000
 1992 014   159   115      5    147    617     0     0   125  0.357  0.412  0.424  0.381  0.387  0.388  0.385  0.380  0.000  0.000
 1992 015   160   118      5    147    626     0     0   125  0.468  0.408  0.420  0.379  0.385  0.387  0.383  0.379  0.000  0.000
 1992 016   161   114      5    147    626     0     0   125  0.433  0.409  0.416  0.377  0.383  0.385  0.382  0.378  0.000  0.000
 1992 017   162   111      5    147    626     0     0   125  0.410  0.408  0.413  0.374  0.381  0.383  0.380  0.376  0.000  0.000
 1992 018   163   108      5    147    626     0     0   125  0.393  0.406  0.410  0.372  0.379  0.382  0.379  0.375  0.000  0.000
 1992 019   164   106      5    147    626     0     0   125  0.380  0.403  0.409  0.371  0.378  0.381  0.378  0.374  0.000  0.000
 1992 020   165   103      5    147    626     0     0   125  0.368  0.401  0.407  0.369  0.376  0.380  0.377  0.373  0.000  0.000
 1992 021   166   102      5    147    626     0     0   125  0.359  0.399  0.406  0.368  0.375  0.379  0.376  0.372  0.000  0.000
 1992 022   167   100      5    147    626     0     0   125  0.350  0.397  0.405  0.367  0.374  0.378  0.375  0.371  0.000  0.000
 1992 023   168    99      5    147    626     0     0   125  0.342  0.395  0.404  0.366  0.374  0.377  0.375  0.371  0.000  0.000
 1992 024   169    98      5    147    626     0     0   125  0.334  0.393  0.404  0.366  0.373  0.377  0.375  0.370  0.000  0.000
 1992 025   170    97      5    147    626     0     0   125  0.327  0.392  0.403  0.365  0.373  0.377  0.374  0.370  0.000  0.000
 1992 026   171   113      5    147    648     0     0   125  0.463  0.486  0.403  0.365  0.373  0.376  0.374  0.370  0.000  0.000

*DSSAT Cropping System Model Ver. 4.0.2.000               Aug 11, 2016; 20:47:44

*RUN   3        : UYSB                    
 MODEL          : CRGRO040 - Soybean         
 EXPERIMENT     : UYSB0173 SB    late to create DSS                             
 TREATMENT  1   : UYSB                    

@YEAR DOY   DAS  SWXD   ROFC   DRNC   PREC  IR#C  IRRC  DTWT   SW1D   SW2D   SW3D   SW4D   SW5D   SW6D   SW7D   SW8D   SW9D   SW10
 1992 220     0   117      0      0      0     0     0   125  0.374  0.394  0.394  0.335  0.375  0.419  0.408  0.395  0.000  0.000
 1992 221     1   117      0      0      2     0     0   125  0.372  0.393  0.394  0.335  0.376  0.418  0.408  0.395  0.000  0.000
 1992 222     2   115      0      0      2     0     0   125  0.344  0.393  0.394  0.336  0.376  0.418  0.408  0.395  0.000  0.000
 1992 223     3   113      0      0      2     0     0   125  0.308  0.392  0.394  0.336  0.377  0.417  0.408  0.395  0.000  0.000
 1992 224     4   112      0      0      2     0     0   125  0.275  0.390  0.394  0.337  0.377  0.417  0.408  0.395  0.000  0.000
 1992 225     5   110      0      0      2     0     0   125  0.253  0.389  0.394  0.337  0.378  0.416  0.408  0.395  0.000  0.000
 1992 226     6   109      0      0      2     0     0   125  0.236  0.388  0.394  0.338  0.378  0.416  0.408  0.395  0.000  0.000
 1992 227     7   109      0      0      2     0     0   125  0.222  0.386  0.394  0.338  0.378  0.415  0.408  0.395  0.000  0.000
 1992 228     8   108      0      0      2     0     0   125  0.222  0.385  0.394  0.339  0.378  0.415  0.408  0.395  0.000  0.000
 1992 229     9   108      0      0      2     0     0   125  0.222  0.384  0.394  0.339  0.379  0.415  0.408  0.395  0.000  0.000
 1992 230    10   108      0      0      2     0     0   125  0.222  0.383  0.394  0.340  0.379  0.414  0.408  0.395  0.000  0.000
 1992 231    11   108      0      0      2     0     0   125  0.222  0.383  0.394  0.340  0.379  0.414  0.407  0.395  0.000  0.000
 1992 232    12   108      0      0      2     0     0   125  0.222  0.382  0.393  0.340  0.380  0.414  0.407  0.395  0.000  0.000
 1992 233    13   108      0      0      2     0     0   125  0.221  0.381  0.393  0.341  0.380  0.413  0.407  0.395  0.000  0.000
 1992 234    14   108      0      0      2     0     0   125  0.221  0.380  0.393  0.341  0.380  0.413  0.407  0.395  0.000  0.000
 1992 235    15   109      0      0      4     0     0   125  0.251  0.379  0.393  0.342  0.380  0.413  0.407  0.395  0.000  0.000
 1992 236    16   113      0      0     10     0     0   125  0.339  0.379  0.393  0.342  0.380  0.412  0.407  0.395  0.000  0.000
 1992 237    17   112      0      0     10     0     0   125  0.305  0.378  0.393  0.343  0.381  0.412  0.407  0.395  0.000  0.000
 1992 238    18   110      0      0     10     0     0   125  0.282  0.377  0.393  0.343  0.381  0.412  0.407  0.395  0.000  0.000
 1992 239    19   109      0      0     10     0     0   125  0.264  0.377  0.393  0.344  0.381  0.411  0.407  0.395  0.000  0.000
 1992 240    20   108      0      0     10     0     0   125  0.248  0.376  0.393  0.344  0.381  0.411  0.407  0.395  0.000  0.000
 1992 241    21   108      0      0     10     0     0   125  0.234  0.375  0.392  0.344  0.381  0.411  0.407  0.395  0.000  0.000
 1992 242    22   107      0      0     10     0     0   125  0.222  0.375  0.392  0.345  0.381  0.411  0.407  0.395  0.000  0.000
 1992 243    23   107      0      0     10     0     0   125  0.221  0.374  0.392  0.345  0.381  0.410  0.406  0.395  0.000  0.000
 1992 244    24   113      0      0     16     0     0   125  0.341  0.374  0.392  0.346  0.382  0.410  0.406  0.395  0.000  0.000
 1992 245    25   111      0      0     16     0     0   125  0.313  0.373  0.392  0.346  0.382  0.410  0.406  0.395  0.000  0.000
 1992 246    26   110      0      0     16     0     0   125  0.291  0.373  0.392  0.346  0.382  0.410  0.406  0.395  0.000  0.000
 1992 247    27   109      0      0     16     0     0   125  0.273  0.372  0.392  0.347  0.382  0.409  0.406  0.395  0.000  0.000
 1992 248    28   108      0      0     16     0     0   125  0.258  0.372  0.392  0.347  0.382  0.409  0.406  0.395  0.000  0.000
 1992 249    29   107      0      0     16     0     0   125  0.244  0.371  0.392  0.347  0.382  0.409  0.406  0.394  0.000  0.000
 1992 250    30   107      0      0     16     0     0   125  0.231  0.371  0.392  0.348  0.382  0.408  0.406  0.394  0.000  0.000
 1992 251    31   106      0      0     16     0     0   125  0.221  0.371  0.391  0.348  0.382  0.408  0.406  0.394  0.000  0.000
 1992 252    32   106      0      0     16     0     0   125  0.221  0.370  0.391  0.348  0.382  0.408  0.406  0.394  0.000  0.000
 1992 253    33   106      0      0     16     0     0   125  0.221  0.370  0.391  0.349  0.382  0.408  0.405  0.394  0.000  0.000
 1992 254    34   106      0      0     16     0     0   125  0.221  0.370  0.391  0.349  0.382  0.407  0.405  0.394  0.000  0.000
 1992 255    35   110      0      0     20     0     0   125  0.301  0.369  0.391  0.349  0.382  0.407  0.405  0.394  0.000  0.000
 1992 256    36   110      0      0     21     0     0   125  0.308  0.369  0.391  0.349  0.382  0.407  0.405  0.394  0.000  0.000
 1992 257    37   109      0      0     21     0     0   125  0.289  0.369  0.391  0.350  0.382  0.407  0.405  0.394  0.000  0.000
 1992 258    38   108      0      0     21     0     0   125  0.274  0.368  0.391  0.350  0.382  0.406  0.405  0.394  0.000  0.000
 1992 259    39   107      0      0     21     0     0   125  0.259  0.368  0.391  0.350  0.382  0.406  0.405  0.394  0.000  0.000
 1992 260    40   106      0      0     21     0     0   125  0.247  0.368  0.391  0.351  0.382  0.406  0.404  0.394  0.000  0.000
 1992 261    41   106      0      0     21     0     0   125  0.235  0.367  0.391  0.351  0.382  0.406  0.404  0.394  0.000  0.000
 1992 262    42   109      0      0     25     0     0   125  0.301  0.367  0.391  0.351  0.382  0.405  0.404  0.394  0.000  0.000
 1992 263    43   108      0      0     25     0     0   125  0.284  0.367  0.391  0.351  0.382  0.405  0.404  0.394  0.000  0.000
 1992 264    44   107      0      0     25     0     0   125  0.270  0.367  0.391  0.351  0.382  0.405  0.404  0.393  0.000  0.000
 1992 265    45   106      0      0     25     0     0   125  0.257  0.366  0.391  0.352  0.382  0.404  0.403  0.393  0.000  0.000
 1992 266    46   117      0      0     37     0     0   125  0.473  0.366  0.391  0.352  0.382  0.404  0.403  0.393  0.000  0.000
 1992 267    47   123      0      0     47     0     0   125  0.493  0.421  0.391  0.352  0.382  0.404  0.403  0.393  0.000  0.000
 1992 268    48   122      0      0     47     0     0   125  0.454  0.427  0.391  0.352  0.382  0.404  0.403  0.393  0.000  0.000
 1992 269    49   135      0      0     64     0     0   125  0.485  0.541  0.392  0.353  0.382  0.404  0.403  0.393  0.000  0.000
 1992 270    50   132      0      0     64     0     0   125  0.462  0.514  0.397  0.353  0.382  0.403  0.403  0.393  0.000  0.000
 1992 271    51   129      0      0     64     0     0   125  0.432  0.497  0.401  0.353  0.382  0.403  0.403  0.393  0.000  0.000
 1992 272    52   127      0      0     64     0     0   125  0.423  0.483  0.403  0.353  0.382  0.403  0.402  0.392  0.000  0.000
 1992 273    53   126      0      0     64     0     0   125  0.416  0.472  0.405  0.354  0.382  0.403  0.402  0.392  0.000  0.000
 1992 274    54   125      0      0     64     0     0   125  0.408  0.463  0.407  0.354  0.382  0.402  0.402  0.392  0.000  0.000
 1992 275    55   124      0      0     64     0     0   125  0.401  0.455  0.409  0.354  0.382  0.402  0.402  0.392  0.000  0.000
 1992 276    56   124      0      0     66     0     0   125  0.418  0.449  0.410  0.354  0.382  0.402  0.402  0.392  0.000  0.000
 1992 277    57   123      0      0     66     0     0   125  0.407  0.445  0.411  0.355  0.382  0.402  0.401  0.392  0.000  0.000
 1992 278    58   122      0      0     66     0     0   125  0.398  0.440  0.411  0.355  0.382  0.401  0.401  0.392  0.000  0.000
 1992 279    59   122      0      0     66     0     0   125  0.390  0.436  0.412  0.355  0.381  0.401  0.401  0.391  0.000  0.000
 1992 280    60   129      0      0     78     0     0   125  0.497  0.463  0.412  0.356  0.381  0.401  0.401  0.391  0.000  0.000
 1992 281    61   127      0      0     78     0     0   125  0.439  0.465  0.414  0.356  0.381  0.400  0.400  0.391  0.000  0.000
 1992 282    62   125      0      0     78     0     0   125  0.417  0.459  0.415  0.356  0.381  0.400  0.400  0.391  0.000  0.000
 1992 283    63   124      0      0     78     0     0   125  0.403  0.452  0.416  0.356  0.381  0.400  0.400  0.391  0.000  0.000
 1992 284    64   122      0      0     78     0     0   125  0.392  0.446  0.417  0.357  0.381  0.399  0.399  0.390  0.000  0.000
 1992 285    65   121      0      0     78     0     0   125  0.382  0.440  0.417  0.357  0.381  0.399  0.399  0.390  0.000  0.000
 1992 286    66   120      0      0     78     0     0   125  0.374  0.435  0.418  0.357  0.381  0.399  0.399  0.390  0.000  0.000
 1992 287    67   119      0      0     78     0     0   125  0.367  0.430  0.417  0.357  0.380  0.398  0.398  0.389  0.000  0.000
 1992 288    68   118      0      0     78     0     0   125  0.360  0.426  0.417  0.358  0.380  0.398  0.398  0.389  0.000  0.000
 1992 289    69   117      0      0     78     0     0   125  0.354  0.422  0.417  0.358  0.380  0.397  0.397  0.389  0.000  0.000
 1992 290    70   145      0      0    108     0     0   125  0.533  0.565  0.451  0.358  0.380  0.397  0.397  0.389  0.000  0.000
 1992 291    71   140      0      0    108     0     0   125  0.450  0.540  0.462  0.359  0.380  0.397  0.397  0.388  0.000  0.000
 1992 292    72   136      0      0    108     0     0   125  0.438  0.507  0.463  0.360  0.380  0.396  0.396  0.388  0.000  0.000
 1992 293    73   134      0      0    108     0     0   125  0.433  0.491  0.463  0.361  0.380  0.396  0.396  0.388  0.000  0.000
 1992 294    74   144      0      0    123     0     0   125  0.492  0.547  0.469  0.362  0.379  0.396  0.396  0.388  0.000  0.000
 1992 295    75   139      0      0    123     0     0   125  0.457  0.517  0.472  0.363  0.379  0.395  0.395  0.387  0.000  0.000
 1992 296    76   136      0      0    123     0     0   125  0.442  0.498  0.471  0.364  0.379  0.395  0.395  0.387  0.000  0.000
 1992 297    77   134      0      0    123     0     0   125  0.432  0.484  0.468  0.365  0.379  0.394  0.394  0.386  0.000  0.000
 1992 298    78   132      0      0    123     0     0   125  0.424  0.473  0.465  0.366  0.379  0.394  0.394  0.386  0.000  0.000
 1992 299    79   130      0      0    123     0     0   125  0.416  0.466  0.463  0.366  0.379  0.394  0.394  0.386  0.000  0.000
 1992 300    80   128      0      0    123     0     0   125  0.409  0.457  0.457  0.367  0.378  0.393  0.393  0.385  0.000  0.000
 1992 301    81   125      0      0    123     0     0   125  0.402  0.447  0.451  0.367  0.378  0.392  0.392  0.384  0.000  0.000
 1992 302    82   124      0      0    124     0     0   125  0.414  0.443  0.448  0.367  0.378  0.392  0.392  0.384  0.000  0.000
 1992 303    83   123      0      0    125     0     0   125  0.421  0.437  0.442  0.367  0.377  0.391  0.391  0.383  0.000  0.000
 1992 304    84   120      0      0    125     0     0   125  0.407  0.432  0.437  0.367  0.377  0.390  0.390  0.382  0.000  0.000
 1992 305    85   117      0      0    125     0     0   125  0.396  0.426  0.431  0.366  0.376  0.389  0.388  0.381  0.000  0.000
 1992 306    86   114      0      0    125     0     0   125  0.386  0.421  0.426  0.366  0.375  0.387  0.387  0.380  0.000  0.000
 1992 307    87   110      0      0    125     0     0   125  0.377  0.415  0.420  0.364  0.374  0.385  0.385  0.379  0.000  0.000
 1992 308    88   123      0      0    143     0     0   125  0.515  0.488  0.417  0.364  0.373  0.384  0.383  0.378  0.000  0.000
 1992 309    89   118      0      0    143     0     0   125  0.437  0.482  0.418  0.363  0.372  0.383  0.383  0.377  0.000  0.000
 1992 310    90   114      0      0    143     0     0   125  0.410  0.464  0.418  0.363  0.372  0.382  0.382  0.376  0.000  0.000
 1992 311    91   109      0      0    143     0     0   125  0.371  0.446  0.416  0.362  0.371  0.381  0.381  0.375  0.000  0.000
 1992 312    92   105      0      0    143     0     0   125  0.352  0.428  0.414  0.361  0.370  0.380  0.379  0.374  0.000  0.000
 1992 313    93   101      0      0    143     0     0   125  0.336  0.415  0.410  0.360  0.368  0.378  0.377  0.372  0.000  0.000
 1992 314    94    96      0      0    143     0     0   125  0.323  0.406  0.404  0.358  0.367  0.376  0.375  0.370  0.000  0.000
 1992 315    95    94      0      0    143     0     0   125  0.311  0.402  0.403  0.357  0.366  0.375  0.374  0.370  0.000  0.000
 1992 316    96    93      0      0    147     0     0   125  0.334  0.396  0.399  0.356  0.364  0.373  0.372  0.368  0.000  0.000
 1992 317    97    88      0      0    147     0     0   125  0.321  0.390  0.394  0.353  0.362  0.370  0.369  0.365  0.000  0.000
 1992 318    98    83      0      0    147     0     0   125  0.308  0.384  0.388  0.351  0.359  0.367  0.366  0.362  0.000  0.000
 1992 319    99    79      0      0    147     0     0   125  0.297  0.380  0.385  0.348  0.356  0.364  0.363  0.360  0.000  0.000
 1992 320   100   101      0      0    174     0     0   125  0.521  0.511  0.381  0.346  0.354  0.362  0.361  0.358  0.000  0.000
 1992 321   101    95      0      0    174     0     0   125  0.452  0.489  0.384  0.346  0.354  0.361  0.360  0.357  0.000  0.000
 1992 322   102    90      0      0    174     0     0   125  0.414  0.457  0.386  0.345  0.353  0.361  0.359  0.357  0.000  0.000
 1992 323   103    84      0      0    174     0     0   125  0.367  0.429  0.386  0.344  0.352  0.360  0.359  0.356  0.000  0.000
 1992 324   104    77      0      0    174     0     0   125  0.343  0.399  0.383  0.343  0.350  0.358  0.357  0.354  0.000  0.000
 1992 325   105    72      0      0    174     0     0   125  0.324  0.388  0.379  0.340  0.348  0.355  0.354  0.352  0.000  0.000
 1992 326   106    71      0      0    174     0     0   125  0.312  0.384  0.378  0.340  0.347  0.355  0.353  0.351  0.000  0.000
 1992 327   107    66      0      0    174     0     0   125  0.298  0.377  0.373  0.337  0.345  0.352  0.351  0.349  0.000  0.000
 1992 328   108    62      0      0    174     0     0   125  0.284  0.371  0.369  0.335  0.342  0.349  0.348  0.347  0.000  0.000
 1992 329   109    57      0      0    174     0     0   125  0.272  0.365  0.365  0.332  0.339  0.346  0.345  0.344  0.000  0.000
 1992 330   110    53      0      0    174     0     0   125  0.260  0.361  0.361  0.330  0.336  0.343  0.342  0.341  0.000  0.000
 1992 331   111    49      0      0    174     0     0   125  0.249  0.357  0.358  0.327  0.334  0.341  0.340  0.339  0.000  0.000
 1992 332   112    45      0      0    174     0     0   125  0.238  0.353  0.354  0.324  0.331  0.337  0.336  0.336  0.000  0.000
 1992 333   113    41      0      0    174     0     0   125  0.228  0.350  0.351  0.321  0.328  0.334  0.334  0.333  0.000  0.000
 1992 334   114    37      0      0    174     0     0   125  0.220  0.347  0.349  0.319  0.325  0.332  0.331  0.331  0.000  0.000
 1992 335   115    68      0      0    208     0     0   125  0.568  0.510  0.346  0.316  0.323  0.329  0.328  0.328  0.000  0.000
 1992 336   116    62      0      0    208     0     0   125  0.477  0.490  0.349  0.316  0.322  0.329  0.328  0.328  0.000  0.000
 1992 337   117    55      0      0    208     0     0   125  0.422  0.455  0.352  0.316  0.322  0.328  0.328  0.328  0.000  0.000
 1992 338   118    50      0      0    208     0     0   125  0.388  0.417  0.353  0.315  0.322  0.328  0.327  0.327  0.000  0.000
 1992 339   119    43      0      0    208     0     0   125  0.335  0.385  0.352  0.314  0.320  0.327  0.326  0.326  0.000  0.000
 1992 340   120    38      0      0    208     0     0   125  0.307  0.373  0.350  0.313  0.319  0.325  0.325  0.325  0.000  0.000
 1992 341   121    63      0      0    238     0     0   125  0.524  0.532  0.348  0.311  0.317  0.323  0.322  0.323  0.000  0.000
 1992 342   122    57      0      0    238     0     0   125  0.480  0.498  0.352  0.311  0.317  0.323  0.322  0.323  0.000  0.000
 1992 343   123    52      0      0    238     0     0   125  0.435  0.462  0.354  0.311  0.316  0.322  0.322  0.322  0.000  0.000
 1992 344   124    47      0      0    238     0     0   125  0.398  0.433  0.355  0.311  0.316  0.322  0.322  0.322  0.000  0.000
 1992 345   125    42      0      0    238     0     0   125  0.360  0.402  0.356  0.310  0.316  0.322  0.322  0.322  0.000  0.000
 1992 346   126    36      0      0    238     0     0   125  0.335  0.376  0.354  0.309  0.315  0.321  0.320  0.320  0.000  0.000
 1992 347   127    32      0      0    238     0     0   125  0.316  0.362  0.351  0.308  0.313  0.319  0.318  0.319  0.000  0.000
 1992 348   128    28      0      0    238     0     0   125  0.299  0.355  0.348  0.306  0.311  0.317  0.317  0.317  0.000  0.000
 1992 349   129    25      0      0    238     0     0   125  0.284  0.350  0.346  0.305  0.310  0.315  0.315  0.316  0.000  0.000
 1992 350   130    23      0      0    238     0     0   125  0.270  0.346  0.344  0.304  0.308  0.314  0.313  0.314  0.000  0.000
 1992 351   131    20      0      0    238     0     0   125  0.257  0.343  0.342  0.303  0.307  0.312  0.312  0.313  0.000  0.000
 1992 352   132    18      0      0    238     0     0   125  0.245  0.340  0.340  0.302  0.306  0.311  0.311  0.312  0.000  0.000
 1992 353   133    16      0      0    238     0     0   125  0.234  0.338  0.339  0.301  0.305  0.310  0.310  0.311  0.000  0.000
 1992 354   134    14      0      0    238     0     0   125  0.223  0.336  0.338  0.300  0.304  0.309  0.309  0.310  0.000  0.000
 1992 355   135    12      0      0    238     0     0   125  0.219  0.334  0.336  0.299  0.303  0.308  0.308  0.309  0.000  0.000
 1992 356   136    11      0      0    238     0     0   125  0.219  0.332  0.335  0.298  0.302  0.307  0.307  0.308  0.000  0.000
 1992 357   137    16      0      0    244     0     0   125  0.339  0.331  0.334  0.297  0.301  0.306  0.306  0.307  0.000  0.000
 1992 358   138    14      0      0    244     0     0   125  0.319  0.331  0.333  0.296  0.300  0.305  0.305  0.306  0.000  0.000
 1992 359   139    41      0      0    275     0     0   125  0.502  0.516  0.332  0.296  0.300  0.304  0.304  0.305  0.000  0.000
 1992 360   140    36      0      0    275     0     0   125  0.447  0.487  0.335  0.296  0.300  0.304  0.304  0.305  0.000  0.000
 1992 361   141    28      0      0    275     0     0   125  0.377  0.448  0.337  0.296  0.299  0.304  0.304  0.305  0.000  0.000
 1992 362   142    23      0      0    275     0     0   125  0.356  0.402  0.338  0.295  0.299  0.304  0.304  0.305  0.000  0.000
 1992 363   143    18      0      0    275     0     0   125  0.335  0.370  0.337  0.295  0.299  0.303  0.303  0.304  0.000  0.000
 1992 364   144    16      0      0    275     0     0   125  0.318  0.364  0.337  0.294  0.298  0.303  0.303  0.303  0.000  0.000
 1992 365   145    19      0      0    280     0     0   125  0.395  0.359  0.336  0.294  0.298  0.302  0.302  0.303  0.000  0.000
 1992 366   146    74      0      0    337     0     0   125  0.539  0.566  0.519  0.294  0.297  0.302  0.302  0.302  0.000  0.000
 1993 001   147   143     17      0    426     0     0   125  0.560  0.559  0.565  0.473  0.460  0.340  0.302  0.302  0.000  0.000
 1993 002   148   147     17      0    431     0     0   125  0.543  0.565  0.566  0.469  0.459  0.354  0.302  0.302  0.000  0.000
 1993 003   149   153     17      0    440     0     0   125  0.543  0.565  0.566  0.469  0.459  0.375  0.302  0.302  0.000  0.000
 1993 004   150   166     17      0    457     0     0   125  0.523  0.564  0.565  0.468  0.458  0.422  0.306  0.302  0.000  0.000
 1993 005   151   160     17      0    457     0     0   125  0.467  0.541  0.552  0.454  0.445  0.418  0.341  0.302  0.000  0.000
 1993 006   152   153     17      0    457     0     0   125  0.454  0.515  0.538  0.444  0.436  0.415  0.353  0.302  0.000  0.000
 1993 007   153   150     17      0    457     0     0   125  0.443  0.507  0.532  0.440  0.433  0.416  0.354  0.303  0.000  0.000
 1993 008   154   172     17      0    483     0     0   125  0.526  0.561  0.562  0.467  0.445  0.419  0.354  0.303  0.000  0.000
 1993 009   155   164     17      0    483     0     0   125  0.461  0.539  0.549  0.452  0.437  0.416  0.379  0.303  0.000  0.000
 1993 010   156   157     17      0    483     0     0   125  0.446  0.514  0.536  0.443  0.431  0.416  0.382  0.304  0.000  0.000
 1993 011   157   152     17      0    483     0     0   125  0.442  0.500  0.527  0.437  0.427  0.413  0.380  0.304  0.000  0.000
 1993 012   158   147     17      0    483     0     0   125  0.436  0.488  0.518  0.432  0.424  0.410  0.379  0.305  0.000  0.000
 1993 013   159   143     17      0    483     0     0   125  0.431  0.480  0.511  0.428  0.421  0.407  0.378  0.305  0.000  0.000
 1993 014   160   140     17      0    483     0     0   125  0.425  0.474  0.506  0.425  0.419  0.405  0.377  0.306  0.000  0.000
 1993 015   161   185     17      0    535     0     0   125  0.494  0.561  0.562  0.466  0.458  0.435  0.396  0.306  0.000  0.000
 1993 016   162   180     17      0    535     0     0   125  0.481  0.532  0.551  0.453  0.445  0.427  0.406  0.337  0.000  0.000
 1993 017   163   174     17      0    535     0     0   125  0.449  0.517  0.540  0.445  0.437  0.422  0.406  0.355  0.000  0.000
 1993 018   164   170     17      0    535     0     0   125  0.447  0.506  0.531  0.439  0.433  0.419  0.406  0.358  0.000  0.000
 1993 019   165   166     17      0    535     0     0   125  0.444  0.496  0.524  0.436  0.430  0.417  0.403  0.358  0.000  0.000
 1993 020   166   161     17      0    535     0     0   125  0.440  0.487  0.516  0.432  0.427  0.414  0.401  0.358  0.000  0.000
 1993 021   167   157     17      0    535     0     0   125  0.434  0.478  0.509  0.428  0.424  0.411  0.398  0.358  0.000  0.000
 1993 022   168   152     17      0    535     0     0   125  0.428  0.470  0.502  0.424  0.421  0.408  0.396  0.358  0.000  0.000
 1993 023   169   149     17      0    535     0     0   125  0.423  0.464  0.497  0.421  0.418  0.406  0.394  0.358  0.000  0.000
 1993 024   170   145     17      0    535     0     0   125  0.417  0.459  0.492  0.418  0.416  0.404  0.392  0.359  0.000  0.000
 1993 025   171   158     17      0    552     0     0   125  0.512  0.547  0.492  0.416  0.415  0.404  0.391  0.359  0.000  0.000
 1993 026   172   153     17      0    552     0     0   125  0.450  0.523  0.497  0.414  0.413  0.402  0.390  0.359  0.000  0.000
 1993 027   173   150     17      0    552     0     0   125  0.444  0.504  0.498  0.414  0.413  0.402  0.390  0.359  0.000  0.000
 1993 028   174   150     17      0    555     0     0   125  0.476  0.492  0.496  0.413  0.412  0.401  0.389  0.359  0.000  0.000
 1993 029   175   147     17      0    555     0     0   125  0.448  0.488  0.495  0.412  0.411  0.401  0.388  0.360  0.000  0.000
 1993 030   176   149     17      0    564     0     0   125  0.456  0.512  0.493  0.411  0.410  0.400  0.388  0.360  0.000  0.000
 1993 031   177   147     17      0    564     0     0   125  0.434  0.499  0.494  0.410  0.409  0.400  0.387  0.360  0.000  0.000
 1993 032   178   177     17      0    600     0     0   125  0.467  0.559  0.567  0.468  0.429  0.400  0.387  0.360  0.000  0.000
 1993 033   179   173     17      0    600     0     0   125  0.434  0.530  0.556  0.455  0.430  0.412  0.387  0.360  0.000  0.000
