*SOIL-PLANT-ATMOSPHERE MODULE OUTPUT FILE

*DSSAT Cropping System Model Ver. 4.0.2.000               Aug 29, 2016; 09:16:37

*RUN   1        : UYSB                    
 MODEL          : CRGRO040 - Soybean         
 EXPERIMENT     : UYSB0405 SB    late to create DSS                             
 TREATMENT  1   : UYSB                    

@YEAR DOY   DAS   SRAA   TMXA   TMNA   EOAA   ETAA   EPAA   ESAA   EFAD   ETAC   EPAC   ESAC   EFAC
 2000 238     0   5.20  16.10  11.80  1.113  1.113  0.000  1.113  0.000    1.1    0.0    1.1    0.0
 2000 239     1  17.20  16.40   7.10  3.538  1.796  0.000  1.796  0.000    2.9    0.0    2.9    0.0
 2000 240     2  19.20  18.90   3.60  3.959  1.242  0.000  1.242  0.000    4.2    0.0    4.2    0.0
 2000 241     3  17.70  11.30   2.00  3.195  3.195  0.000  3.195  0.000    7.3    0.0    7.3    0.0
 2000 242     4  16.60  17.30   2.40  3.305  3.105  0.000  3.105  0.000   10.5    0.0   10.5    0.0
 2000 243     5  17.00  21.40   3.50  3.628  3.213  0.000  3.213  0.000   13.7    0.0   13.7    0.0
 2000 244     6  13.90  15.10   4.80  2.742  1.446  0.000  1.446  0.000   15.1    0.0   15.1    0.0
 2000 245     7  19.20  14.30  -0.90  3.527  1.111  0.000  1.111  0.000   16.2    0.0   16.2    0.0
 2000 246     8  19.30  15.90  -0.80  3.640  0.937  0.000  0.937  0.000   17.2    0.0   17.2    0.0
 2000 247     9  19.60  16.90   0.40  3.801  0.826  0.000  0.826  0.000   18.0    0.0   18.0    0.0
 2000 248    10  20.10  20.40   3.40  4.226  0.746  0.000  0.746  0.000   18.7    0.0   18.7    0.0
 2000 249    11  19.00  20.40   1.10  3.908  0.687  0.000  0.687  0.000   19.4    0.0   19.4    0.0
 2000 250    12  20.50  21.50   3.40  4.376  0.639  0.000  0.639  0.000   20.1    0.0   20.1    0.0
 2000 251    13  19.60  26.00   9.20  4.670  0.600  0.000  0.600  0.000   20.7    0.0   20.7    0.0
 2000 252    14  19.30  27.00  13.10  4.804  0.568  0.000  0.568  0.000   21.2    0.0   21.2    0.0
 2000 253    15   5.90  22.20  13.90  1.394  1.208  0.000  1.208  0.000   22.4    0.0   22.4    0.0
 2000 254    16  11.40  23.80  15.90  2.791  2.791  0.007  2.784  0.000   25.2    0.0   25.2    0.0
 2000 255    17   8.80  21.90  11.30  2.025  2.025  0.006  2.019  0.000   27.2    0.0   27.2    0.0
 2000 256    18  10.50  14.60   7.60  2.113  1.753  0.011  1.742  0.000   29.0    0.0   29.0    0.0
 2000 257    19   6.10   9.50   6.20  1.118  1.118  0.004  1.115  0.000   30.1    0.0   30.1    0.0
 2000 258    20   6.20  10.70   7.90  1.180  1.180  0.004  1.176  0.000   31.3    0.0   31.3    0.0
 2000 259    21   7.70  14.60   9.10  1.572  1.572  0.005  1.567  0.000   32.9    0.0   32.8    0.0
 2000 260    22  13.50  16.70  10.50  2.877  2.877  0.010  2.867  0.000   35.7    0.0   35.7    0.0
 2000 261    23  14.50  19.40   8.00  3.134  2.048  0.018  2.030  0.000   37.8    0.1   37.7    0.0
 2000 262    24   6.30  18.00  14.60  1.418  1.418  0.005  1.412  0.000   39.2    0.1   39.1    0.0
 2000 263    25  14.80  21.20  14.80  3.476  3.476  0.014  3.462  0.000   42.7    0.1   42.6    0.0
 2000 264    26   9.60  21.40  13.20  2.230  2.230  0.010  2.220  0.000   44.9    0.1   44.8    0.0
 2000 265    27   9.20  17.50  12.60  2.020  2.020  0.009  2.011  0.000   46.9    0.1   46.8    0.0
 2000 266    28  23.10  19.00   8.20  4.974  3.716  0.039  3.677  0.000   50.7    0.1   50.5    0.0
 2000 267    29  15.30  21.30   8.10  3.395  2.091  0.027  2.064  0.000   52.7    0.2   52.6    0.0
 2000 268    30  20.70  12.60   5.70  3.963  2.078  0.033  2.045  0.000   54.8    0.2   54.6    0.0
 2000 269    31  22.80  13.40   2.00  4.252  1.347  0.036  1.311  0.000   56.2    0.2   55.9    0.0
 2000 270    32  21.90  16.20   2.10  4.270  1.083  0.037  1.047  0.000   57.3    0.3   57.0    0.0
 2000 271    33  23.50  24.10   6.40  5.330  0.944  0.046  0.898  0.000   58.2    0.3   57.9    0.0
 2000 272    34  23.30  26.00  10.30  5.595  0.849  0.051  0.798  0.000   59.0    0.4   58.7    0.0
 2000 273    35  19.60  26.70  11.50  4.792  0.776  0.050  0.726  0.000   59.8    0.4   59.4    0.0
 2000 274    36  18.90  25.40  13.70  4.629  4.629  0.035  4.594  0.000   64.5    0.5   64.0    0.0
 2000 275    37  17.80  24.60  15.00  4.362  3.218  0.061  3.157  0.000   67.7    0.5   67.2    0.0
 2000 276    38   7.00  18.60  15.90  1.603  1.603  0.016  1.588  0.000   69.3    0.5   68.7    0.0
 2000 277    39  10.50  20.60  13.10  2.409  2.409  0.026  2.383  0.000   71.7    0.6   71.1    0.0
 2000 278    40  19.50  18.30  12.10  4.301  4.078  0.080  3.998  0.000   75.8    0.6   75.1    0.0
 2000 279    41  24.30  18.40   7.40  5.141  3.245  0.105  3.140  0.000   79.0    0.7   78.3    0.0
 2000 280    42  25.00  18.60   5.10  5.190  1.556  0.113  1.444  0.000   80.6    0.9   79.7    0.0
 2000 281    43  23.90  21.70   6.70  5.255  1.230  0.120  1.110  0.000   81.8    1.0   80.8    0.0
 2000 282    44  24.90  22.60   9.90  5.696  4.939  0.139  4.800  0.000   86.7    1.1   85.6    0.0
 2000 283    45   7.50  18.10  12.20  1.650  1.650  0.027  1.622  0.000   88.4    1.1   87.2    0.0
 2000 284    46  24.80  18.20   9.10  5.309  5.030  0.150  4.880  0.000   93.4    1.3   92.1    0.0
 2000 285    47  25.40  21.20   8.00  5.606  3.200  0.166  3.033  0.000   96.6    1.5   95.2    0.0
 2000 286    48  23.00  27.20  16.20  5.852  1.623  0.184  1.439  0.000   98.2    1.6   96.6    0.0
 2000 287    49  23.10  21.80  11.90  5.312  1.296  0.189  1.108  0.000   99.5    1.8   97.7    0.0
 2000 288    50   7.50  19.70  13.80  1.705  1.002  0.067  0.935  0.000  100.5    1.9   98.6    0.0
 2000 289    51   8.20  19.90  12.40  1.846  1.846  0.049  1.797  0.000  102.4    1.9  100.4    0.0
 2000 290    52  11.40  23.30  14.40  2.724  2.626  0.125  2.501  0.000  105.0    2.1  102.9    0.0
 2000 291    53  11.30  22.00  16.50  2.701  2.701  0.085  2.616  0.000  107.7    2.2  105.5    0.0
 2000 292    54   7.80  23.60  16.30  1.897  1.773  0.103  1.670  0.000  109.5    2.3  107.2    0.0
 2000 293    55  13.30  19.70  16.50  3.085  3.085  0.117  2.969  0.000  112.6    2.4  110.2    0.0
 2000 294    56   7.80  26.60  15.60  1.952  1.952  0.081  1.872  0.000  114.5    2.5  112.1    0.0
 2000 295    57  20.50  27.50  15.20  5.164  3.790  0.370  3.421  0.000  118.3    2.8  115.5    0.0
 2000 296    58   8.10  19.70  16.10  1.868  1.868  0.094  1.774  0.000  120.2    2.9  117.3    0.0
 2000 297    59   8.20  18.80  14.70  1.845  1.845  0.099  1.747  0.000  122.0    3.0  119.0    0.0
 2000 298    60   7.90  22.00  14.20  1.843  1.843  0.104  1.739  0.000  123.9    3.1  120.7    0.0
 2000 299    61  13.70  22.00  16.60  3.255  3.255  0.203  3.052  0.000  127.1    3.3  123.8    0.0
 2000 300    62  11.80  23.90  18.10  2.898  2.898  0.206  2.692  0.000  130.0    3.5  126.5    0.0
 2000 301    63  27.40  24.80  12.50  6.488  5.711  0.817  4.894  0.000  135.7    4.3  131.4    0.0
 2000 302    64  27.50  20.10   9.20  5.947  3.093  0.837  2.256  0.000  138.8    5.2  133.6    0.0
 2000 303    65  28.70  17.90   7.40  5.916  2.240  0.885  1.355  0.000  141.1    6.1  135.0    0.0
 2000 304    66  28.40  27.10   9.50  6.720  2.117  1.049  1.069  0.000  143.2    7.1  136.1    0.0
 2000 305    67  26.70  26.60  12.40  6.412  2.023  1.112  0.911  0.000  145.2    8.2  137.0    0.0
 2000 306    68   8.20  24.70  14.60  1.953  1.953  0.260  1.693  0.000  147.2    8.5  138.7    0.0
 2000 307    69  20.50  22.50  13.80  4.706  4.706  0.701  4.005  0.000  151.9    9.2  142.7    0.0
 2000 308    70  29.60  23.40   9.40  6.602  4.987  1.562  3.425  0.000  156.8   10.8  146.1    0.0
 2000 309    71  18.60  22.00  10.60  4.105  2.615  1.047  1.568  0.000  159.5   11.8  147.7    0.0
 2000 310    72  28.70  23.90  10.60  6.472  2.931  1.769  1.162  0.000  162.4   13.6  148.8    0.0
 2000 311    73  25.80  24.90  13.20  5.999  2.740  1.773  0.967  0.000  165.1   15.3  149.8    0.0
 2000 312    74  11.90  23.60  15.00  2.752  2.493  0.893  1.600  0.000  167.6   16.2  151.4    0.0
 2000 313    75  15.90  25.00  17.00  3.783  2.225  1.333  0.892  0.000  169.8   17.6  152.3    0.0
 2000 314    76   8.80  20.70  16.40  1.968  1.554  0.760  0.795  0.000  171.4   18.3  153.1    0.0
 2000 315    77  24.80  23.40  13.80  5.594  3.007  2.284  0.723  0.000  174.4   20.6  153.8    0.0
 2000 316    78  22.70  25.60  14.30  5.260  5.260  1.840  3.419  0.000  179.7   22.5  157.2    0.0
 2000 317    79  22.20  25.80  17.10  5.249  5.249  2.270  2.978  0.000  184.9   24.7  160.2    0.0
 2000 318    80  20.20  21.60  12.40  4.346  4.346  1.818  2.529  0.000  189.3   26.5  162.7    0.0
 2000 319    81  24.90  16.00   7.90  4.756  4.069  2.433  1.636  0.000  193.3   29.0  164.4    0.0
 2000 320    82  22.80  16.60   5.00  4.267  3.398  2.211  1.188  0.000  196.7   31.2  165.5    0.0
 2000 321    83  30.40  22.50   6.30  6.248  4.256  3.275  0.981  0.000  201.0   34.5  166.5    0.0
 2000 322    84  30.30  25.80   9.10  6.642  4.428  3.572  0.856  0.000  205.4   38.0  167.4    0.0
 2000 323    85  30.30  27.90  10.00  6.847  4.579  3.811  0.768  0.000  210.0   41.8  168.2    0.0
 2000 324    86  28.80  29.50  12.70  6.754  6.298  3.898  2.400  0.000  216.3   45.7  170.6    0.0
 2000 325    87  32.00  21.30  10.60  6.648  4.732  3.979  0.753  0.000  221.0   49.7  171.3    0.0
 2000 326    88  30.90  26.40   8.90  6.739  4.807  4.115  0.692  0.000  225.8   53.8  172.0    0.0
 2000 327    89  23.90  28.20  14.80  5.570  4.132  3.489  0.643  0.000  230.0   57.3  172.6    0.0
 2000 328    90  25.60  32.30  16.40  6.305  6.305  3.135  3.170  0.000  236.3   60.5  175.8    0.0
 2000 329    91  16.60  20.50  13.00  3.451  3.451  1.768  1.683  0.000  239.7   62.2  177.5    0.0
 2000 330    92  29.80  23.40   8.70  6.189  6.189  3.947  2.242  0.000  245.9   66.2  179.7    0.0
 2000 331    93  31.20  27.90  12.40  7.052  7.052  4.481  2.572  0.000  253.0   70.7  182.3    0.0
 2000 332    94  12.60  27.60  14.50  2.880  2.880  1.547  1.333  0.000  255.8   72.2  183.6    0.0
 2000 333    95   8.90  21.20  17.30  1.923  1.923  1.054  0.869  0.000  257.8   73.3  184.5    0.0
 2000 334    96  15.00  21.00  12.30  3.097  3.097  2.057  1.040  0.000  260.9   75.3  185.6    0.0
 2000 335    97  30.70  22.50  10.30  6.348  5.445  4.551  0.893  0.000  266.3   79.9  186.4    0.0
 2000 336    98  26.30  23.80   8.80  5.455  5.455  3.070  2.384  0.000  271.8   82.9  188.8    0.0
 2000 337    99  30.90  27.20  11.70  6.841  6.841  3.887  2.954  0.000  278.6   86.8  191.8    0.0
 2000 338   100  20.00  27.60  12.40  4.470  4.470  2.563  1.907  0.000  283.1   89.4  193.7    0.0
 2000 339   101  12.90  21.80  14.40  2.728  2.728  1.578  1.150  0.000  285.8   91.0  194.8    0.0
 2000 340   102  28.90  23.10  11.90  6.080  6.080  3.539  2.541  0.000  291.9   94.5  197.4    0.0
 2000 341   103  27.70  30.30  11.50  6.335  6.335  4.591  1.744  0.000  298.2   99.1  199.1    0.0
 2000 342   104  26.00  31.20  16.20  6.223  6.223  3.817  2.406  0.000  304.4  102.9  201.5    0.0
 2000 343   105  19.80  32.30  17.90  4.854  4.854  3.474  1.380  0.000  309.3  106.4  202.9    0.0
 2000 344   106  31.40  31.80  19.50  7.742  6.897  5.817  1.080  0.000  316.2  112.2  204.0    0.0
 2000 345   107  24.60  29.30  16.50  5.771  5.263  4.344  0.919  0.000  321.4  116.5  204.9    0.0
 2000 346   108  17.60  29.90  19.10  4.237  4.237  2.506  1.731  0.000  325.7  119.0  206.6    0.0
 2000 347   109  23.40  32.50  16.00  5.666  5.666  3.359  2.306  0.000  331.4  122.4  208.9    0.0
 2000 348   110  28.50  33.60  20.50  7.209  7.209  4.279  2.930  0.000  338.6  126.7  211.9    0.0
 2000 349   111  22.70  29.60  20.30  5.493  5.493  3.262  2.231  0.000  344.1  129.9  214.1    0.0
 2000 350   112  22.20  29.40  15.50  5.173  5.173  3.072  2.100  0.000  349.2  133.0  216.2    0.0
 2000 351   113  32.20  21.10   9.80  6.472  6.472  3.841  2.631  0.000  355.7  136.9  218.8    0.0
 2000 352   114  31.50  25.00  10.20  6.680  6.680  4.539  2.141  0.000  362.4  141.4  221.0    0.0
 2000 353   115  32.20  29.20  13.20  7.358  7.358  4.623  2.735  0.000  369.7  146.0  223.7    0.0
 2000 354   116  26.60  26.60  11.10  5.797  5.780  4.361  1.419  0.000  375.5  150.4  225.1    0.0
 2000 355   117  29.70  29.00  12.60  6.742  6.742  4.262  2.480  0.000  382.3  154.6  227.6    0.0
 2000 356   118   9.70  21.00  15.50  2.047  2.047  1.203  0.844  0.000  384.3  155.8  228.5    0.0
 2000 357   119  29.30  29.60  15.70  6.862  6.862  4.395  2.466  0.000  391.2  160.2  230.9    0.0
 2000 358   120  12.60  20.30  15.30  2.632  2.632  1.862  0.771  0.000  393.8  162.1  231.7    0.0
 2000 359   121  28.50  26.30  11.10  6.197  6.197  3.605  2.592  0.000  400.0  165.7  234.3    0.0
 2000 360   122  28.00  31.40  19.00  6.861  6.663  5.081  1.582  0.000  406.7  170.8  235.9    0.0
 2000 361   123  30.90  35.10  20.70  8.006  8.006  4.621  3.385  0.000  414.7  175.4  239.3    0.0
 2000 362   124   9.10  28.20  17.20  2.125  2.125  1.221  0.904  0.000  416.8  176.6  240.2    0.0
 2000 363   125  16.00  26.00  16.10  3.614  3.614  2.067  1.546  0.000  420.4  178.7  241.7    0.0
 2000 364   126  15.80  23.90  16.00  3.479  3.479  1.982  1.497  0.000  423.9  180.7  243.2    0.0
 2000 365   127  29.60  26.20  14.50  6.622  6.622  3.756  2.866  0.000  430.5  184.4  246.1    0.0
 2000 366   128  30.60  29.40  15.90  7.185  7.185  4.654  2.531  0.000  437.7  189.1  248.6    0.0
 2001 001   129  31.30  29.90  16.50  7.427  7.427  4.709  2.718  0.000  445.1  193.8  251.3    0.0
 2001 002   130  30.60  30.00  16.20  7.256  6.632  5.214  1.417  0.000  451.7  199.0  252.7    0.0
 2001 003   131  30.40  32.50  15.80  7.393  6.388  5.290  1.098  0.000  458.1  204.3  253.8    0.0
 2001 004   132  19.70  33.10  21.90  5.038  5.038  2.791  2.246  0.000  463.2  207.1  256.1    0.0
 2001 005   133  30.40  32.20  20.60  7.635  7.635  4.207  3.427  0.000  470.8  211.3  259.5    0.0
 2001 006   134  29.10  33.80  20.90  7.452  7.452  4.084  3.367  0.000  478.3  215.4  262.9    0.0
 2001 007   135  11.60  28.40  21.30  2.813  2.813  1.533  1.280  0.000  481.1  216.9  264.2    0.0
 2001 008   136  20.20  28.40  17.80  4.775  4.775  2.589  2.187  0.000  485.8  219.5  266.3    0.0
 2001 009   137  26.00  29.90  17.40  6.235  6.235  3.361  2.875  0.000  492.1  222.9  269.2    0.0
 2001 010   138   9.00  22.70  16.10  1.966  1.966  1.053  0.912  0.000  494.1  223.9  270.1    0.0
 2001 011   139  32.10  22.60  13.00  6.829  6.829  3.639  3.189  0.000  500.9  227.6  273.3    0.0
 2001 012   140  31.60  23.70   9.90  6.644  6.644  4.011  2.633  0.000  507.5  231.6  276.0    0.0
 2001 013   141  23.50  27.60  13.10  5.323  5.323  3.306  2.017  0.000  512.8  234.9  278.0    0.0
 2001 014   142  17.00  30.30  20.40  4.197  4.197  2.199  1.998  0.000  517.0  237.1  280.0    0.0
 2001 015   143  25.70  28.30  20.60  6.220  6.220  3.237  2.983  0.000  523.3  240.3  282.9    0.0
 2001 016   144  23.10  29.90  19.80  5.661  5.661  3.612  2.048  0.000  528.9  243.9  285.0    0.0
 2001 017   145  14.90  26.50  20.10  3.526  3.526  1.810  1.716  0.000  532.4  245.7  286.7    0.0
 2001 018   146  12.60  25.00  21.50  2.964  2.964  1.511  1.453  0.000  535.4  247.2  288.2    0.0
 2001 019   147  14.80  26.40  18.00  3.447  3.447  1.744  1.703  0.000  538.9  249.0  289.9    0.0
 2001 020   148  30.30  25.80  14.10  6.801  6.502  4.433  2.070  0.000  545.4  253.4  291.9    0.0
 2001 021   149  30.60  26.30  12.40  6.821  6.463  4.417  2.046  0.000  551.8  257.8  294.0    0.0
 2001 022   150  13.90  28.10  14.80  3.227  3.227  1.916  1.311  0.000  555.1  259.8  295.3    0.0
 2001 023   151  30.60  30.50  17.90  7.477  5.827  4.781  1.047  0.000  560.9  264.5  296.3    0.0
 2001 024   152  29.90  32.20  16.30  7.362  5.572  4.675  0.898  0.000  566.5  269.2  297.2    0.0
 2001 025   153  28.50  32.30  19.70  7.203  5.342  4.543  0.798  0.000  571.8  273.8  298.0    0.0
 2001 026   154  22.70  33.40  20.30  5.833  5.833  3.248  2.585  0.000  577.6  277.0  300.6    0.0
 2001 027   155   9.90  25.50  21.60  2.358  2.358  1.128  1.229  0.000  580.0  278.1  301.9    0.0
 2001 028   156   8.70  21.60  18.50  1.933  1.933  0.919  1.014  0.000  581.9  279.1  302.9    0.0
 2001 029   157  28.00  26.90  12.20  6.308  6.308  2.981  3.327  0.000  588.2  282.0  306.2    0.0
 2001 030   158  29.30  26.40  15.70  6.749  6.441  4.122  2.319  0.000  594.7  286.2  308.5    0.0
 2001 031   159  26.50  30.50  18.10  6.516  6.045  3.956  2.088  0.000  600.7  290.1  310.6    0.0
 2001 032   160  18.70  30.20  20.80  4.733  3.800  2.479  1.321  0.000  604.5  292.6  311.9    0.0
 2001 033   161  28.80  32.40  20.60  7.540  4.410  3.358  1.052  0.000  608.9  295.9  313.0    0.0
 2001 034   162  26.00  25.70  17.20  6.227  3.230  2.330  0.901  0.000  612.2  298.3  313.9    0.0
 2001 035   163  29.50  28.60  14.10  7.202  7.202  1.650  5.552  0.000  619.4  299.9  319.4    0.0
 2001 036   164  28.60  27.50  18.70  7.199  5.560  1.849  3.711  0.000  624.9  301.8  323.1    0.0
 2001 037   165  29.30  31.60  16.20  7.631  3.128  1.606  1.522  0.000  628.0  303.4  324.7    0.0
 2001 038   166  29.30  34.30  20.30  8.135  2.539  1.396  1.143  0.000  630.6  304.8  325.8    0.0
 2001 039   167  12.40  29.90  20.30  3.301  3.301  0.305  2.996  0.000  633.9  305.1  328.8    0.0
 2001 040   168  22.60  32.40  20.00  6.191  5.743  0.702  5.041  0.000  639.6  305.8  333.8    0.0
 2001 041   169  10.50  31.30  21.60  2.884  2.078  0.265  1.813  0.000  641.7  306.1  335.7    0.0
 2001 042   170  20.10  33.30  21.30  5.642  5.642  0.267  5.375  0.000  647.3  306.3  341.0    0.0

*DSSAT Cropping System Model Ver. 4.0.2.000               Aug 29, 2016; 09:16:37

*RUN   2        : UYSB                    
 MODEL          : CRGRO040 - Soybean         
 EXPERIMENT     : UYSB0405 SB    late to create DSS                             
 TREATMENT  1   : UYSB                    

@YEAR DOY   DAS   SRAA   TMXA   TMNA   EOAA   ETAA   EPAA   ESAA   EFAD   ETAC   EPAC   ESAC   EFAC
 2001 238     0  11.20  28.30  14.30  2.858  2.858  0.000  2.858  0.000    2.9    0.0    2.9    0.0
 2001 239     1  12.80  20.40   6.50  2.769  2.769  0.000  2.769  0.000    5.6    0.0    5.6    0.0
 2001 240     2  14.10  16.00   4.80  2.819  1.841  0.000  1.841  0.000    7.5    0.0    7.5    0.0
 2001 241     3  18.30  23.20   8.30  4.176  4.176  0.000  4.176  0.000   11.6    0.0   11.6    0.0
 2001 242     4  16.60  25.40  13.30  4.060  4.060  0.000  4.060  0.000   15.7    0.0   15.7    0.0
 2001 243     5   6.40  22.00  17.40  1.553  1.553  0.000  1.553  0.000   17.3    0.0   17.3    0.0
 2001 244     6   5.50  19.00  16.30  1.274  1.274  0.000  1.274  0.000   18.5    0.0   18.5    0.0
 2001 245     7   5.50  16.30  13.50  1.199  1.199  0.000  1.199  0.000   19.7    0.0   19.7    0.0
 2001 246     8   5.60  15.20  13.20  1.199  1.199  0.000  1.199  0.000   20.9    0.0   20.9    0.0
 2001 247     9   5.60  13.60  10.00  1.137  1.137  0.000  1.137  0.000   22.1    0.0   22.1    0.0
 2001 248    10   9.10  16.00   9.20  1.899  1.899  0.000  1.899  0.000   24.0    0.0   24.0    0.0
 2001 249    11   8.40  18.10  10.60  1.828  1.828  0.000  1.828  0.000   25.8    0.0   25.8    0.0
 2001 250    12   5.80  17.30  14.30  1.291  1.291  0.000  1.291  0.000   27.1    0.0   27.1    0.0
 2001 251    13  20.50  18.10   9.20  4.405  4.405  0.000  4.405  0.000   31.5    0.0   31.5    0.0
 2001 252    14  10.00  15.90   7.10  2.041  1.351  0.008  1.343  0.000   32.8    0.0   32.8    0.0
 2001 253    15  19.60  17.20   5.40  4.010  2.629  0.017  2.612  0.000   35.5    0.0   35.4    0.0
 2001 254    16  20.90  17.00   5.70  4.275  1.426  0.019  1.407  0.000   36.9    0.0   36.9    0.0
 2001 255    17  16.10  19.70   3.80  3.362  2.415  0.015  2.400  0.000   39.3    0.1   39.3    0.0
 2001 256    18  15.70  21.30   7.70  3.473  1.227  0.017  1.210  0.000   40.5    0.1   40.5    0.0
 2001 257    19  12.60  15.70   7.20  2.566  1.007  0.013  0.994  0.000   41.5    0.1   41.5    0.0
 2001 258    20  16.70  13.90   5.20  3.246  1.297  0.017  1.280  0.000   42.8    0.1   42.7    0.0
 2001 259    21  14.40  12.00   5.00  2.712  0.917  0.015  0.902  0.000   43.8    0.1   43.6    0.0
 2001 260    22  19.40  16.20   2.90  3.815  0.822  0.021  0.801  0.000   44.6    0.1   44.4    0.0
 2001 261    23  21.10  22.50   6.20  4.680  0.755  0.026  0.728  0.000   45.3    0.2   45.2    0.0
 2001 262    24  16.10  23.20  10.00  3.725  0.695  0.022  0.672  0.000   46.0    0.2   45.8    0.0
 2001 263    25  21.70  25.50  11.80  5.245  0.661  0.033  0.628  0.000   46.7    0.2   46.5    0.0
 2001 264    26  10.90  25.00  14.50  2.676  0.609  0.018  0.591  0.000   47.3    0.2   47.1    0.0
 2001 265    27  15.90  25.80  12.80  3.888  0.589  0.029  0.560  0.000   47.9    0.3   47.6    0.0
 2001 266    28  13.40  23.50  14.50  3.230  0.559  0.026  0.533  0.000   48.4    0.3   48.1    0.0
 2001 267    29  11.90  26.40  16.70  3.022  3.022  0.016  3.006  0.000   51.5    0.3   51.2    0.0
 2001 268    30   6.60  19.30  11.20  1.466  1.466  0.008  1.457  0.000   52.9    0.3   52.6    0.0
 2001 269    31   9.90  17.50  10.40  2.130  1.557  0.021  1.536  0.000   54.5    0.3   54.1    0.0
 2001 270    32   6.70  15.30   9.80  1.390  1.390  0.009  1.380  0.000   55.9    0.4   55.5    0.0
 2001 271    33   6.90  21.00  13.60  1.599  1.599  0.011  1.588  0.000   57.5    0.4   57.1    0.0
 2001 272    34  12.00  21.30  16.00  2.848  2.848  0.023  2.825  0.000   60.3    0.4   59.9    0.0
 2001 273    35   6.90  19.10  16.20  1.595  1.595  0.014  1.581  0.000   61.9    0.4   61.5    0.0
 2001 274    36   6.90  19.00  16.30  1.594  1.594  0.016  1.578  0.000   63.5    0.4   63.1    0.0
 2001 275    37   8.10  17.80  14.00  1.805  1.805  0.020  1.786  0.000   65.3    0.4   64.9    0.0
 2001 276    38   7.90  19.60  13.30  1.791  1.791  0.021  1.770  0.000   67.1    0.5   66.7    0.0
 2001 277    39  13.20  21.20  14.20  3.078  3.078  0.040  3.038  0.000   70.2    0.5   69.7    0.0
 2001 278    40  19.20  19.60  13.40  4.355  3.862  0.102  3.760  0.000   74.1    0.6   73.5    0.0
 2001 279    41  17.00  20.20  13.50  3.888  2.891  0.099  2.792  0.000   76.9    0.7   76.2    0.0
 2001 280    42   7.20  19.30  14.80  1.646  1.646  0.028  1.617  0.000   78.6    0.7   77.9    0.0
 2001 281    43  11.90  19.30  14.30  2.707  2.707  0.051  2.656  0.000   81.3    0.8   80.5    0.0
 2001 282    44  12.20  17.20  13.70  2.685  2.685  0.054  2.631  0.000   84.0    0.8   83.2    0.0
 2001 283    45  23.50  23.60  10.30  5.455  3.430  0.189  3.240  0.000   87.4    1.0   86.4    0.0
 2001 284    46  25.30  21.40  13.10  5.845  1.784  0.224  1.561  0.000   89.2    1.2   88.0    0.0
 2001 285    47  13.60  20.60  12.60  3.095  1.289  0.130  1.159  0.000   90.5    1.4   89.1    0.0
 2001 286    48  21.10  23.30  10.90  4.897  1.187  0.222  0.965  0.000   91.7    1.6   90.1    0.0
 2001 287    49  20.40  24.20  13.50  4.890  1.084  0.239  0.845  0.000   92.8    1.8   90.9    0.0
 2001 288    50   7.50  20.20  16.60  1.754  1.754  0.059  1.695  0.000   94.5    1.9   92.6    0.0
 2001 289    51  10.10  22.60  16.60  2.432  2.432  0.088  2.343  0.000   96.9    2.0   95.0    0.0
 2001 290    52  16.10  24.00  15.50  3.904  3.904  0.157  3.747  0.000  100.8    2.1   98.7    0.0
 2001 291    53  15.50  27.30  15.50  3.905  3.412  0.271  3.141  0.000  104.3    2.4  101.8    0.0
 2001 292    54  21.10  26.40  16.20  5.284  3.126  0.403  2.723  0.000  107.4    2.8  104.6    0.0
 2001 293    55  19.90  27.60  15.00  5.002  4.692  0.415  4.277  0.000  112.1    3.2  108.8    0.0
 2001 294    56  23.00  19.10  10.70  5.007  3.359  0.481  2.879  0.000  115.4    3.7  111.7    0.0
 2001 295    57  27.50  19.10   8.50  5.864  2.030  0.599  1.430  0.000  117.5    4.3  113.2    0.0
 2001 296    58  26.40  23.00   7.20  5.857  1.737  0.633  1.104  0.000  119.2    4.9  114.3    0.0
 2001 297    59  25.80  26.90  10.50  6.175  1.656  0.724  0.933  0.000  120.9    5.7  115.2    0.0
 2001 298    60  26.30  32.40  14.30  6.895  1.730  0.908  0.823  0.000  122.6    6.6  116.0    0.0
 2001 299    61   8.90  22.60  18.90  2.153  2.153  0.217  1.936  0.000  124.7    6.8  118.0    0.0
 2001 300    62   8.00  20.60  18.50  1.877  1.877  0.217  1.660  0.000  126.6    7.0  119.6    0.0
 2001 301    63   8.00  23.40  18.40  1.935  1.935  0.249  1.686  0.000  128.6    7.3  121.3    0.0
 2001 302    64   8.20  23.80  18.00  1.980  1.980  0.290  1.690  0.000  130.5    7.5  123.0    0.0
 2001 303    65  26.70  21.50  13.80  6.034  6.034  1.289  4.745  0.000  136.6    8.8  127.7    0.0
 2001 304    66  28.60  22.20  12.00  6.404  4.732  1.641  3.092  0.000  141.3   10.5  130.8    0.0
 2001 305    67  28.70  24.00  10.40  6.467  3.227  1.785  1.442  0.000  144.5   12.3  132.3    0.0
 2001 306    68  24.30  21.70  11.20  5.336  2.696  1.587  1.109  0.000  147.2   13.8  133.4    0.0
 2001 307    69  28.70  22.50  10.20  6.296  2.925  1.989  0.936  0.000  150.1   15.8  134.3    0.0
 2001 308    70  28.60  23.80  11.30  6.420  2.974  2.149  0.825  0.000  153.1   18.0  135.1    0.0
 2001 309    71  26.20  28.70  12.30  6.271  2.986  2.240  0.746  0.000  156.1   20.2  135.9    0.0
 2001 310    72  11.90  26.60  16.90  2.869  2.869  0.858  2.011  0.000  159.0   21.1  137.9    0.0
 2001 311    73   8.40  17.80  15.00  1.780  1.780  0.587  1.193  0.000  160.8   21.7  139.1    0.0
 2001 312    74  18.80  21.70  13.40  4.125  4.125  1.417  2.708  0.000  164.9   23.1  141.8    0.0
 2001 313    75  20.10  24.10  12.30  4.490  4.490  1.639  2.852  0.000  169.4   24.7  144.6    0.0
 2001 314    76  10.60  25.30  17.10  2.490  2.490  0.965  1.525  0.000  171.9   25.7  146.2    0.0
 2001 315    77  29.80  25.80  13.00  6.789  6.789  2.837  3.952  0.000  178.7   28.5  150.1    0.0
 2001 316    78  28.10  27.90  14.10  6.598  5.993  3.407  2.585  0.000  184.6   31.9  152.7    0.0
 2001 317    79  10.20  24.00  15.50  2.304  2.304  0.962  1.342  0.000  186.9   32.9  154.0    0.0
 2001 318    80  20.50  24.30  16.80  4.681  4.103  2.625  1.478  0.000  191.1   35.5  155.5    0.0
 2001 319    81  28.90  25.00  13.70  6.471  4.892  3.767  1.125  0.000  195.9   39.3  156.7    0.0
 2001 320    82  26.60  20.00  11.50  5.475  4.228  3.282  0.945  0.000  200.2   42.6  157.6    0.0
 2001 321    83  29.50  24.50   8.00  6.237  4.625  3.794  0.831  0.000  204.8   46.4  158.4    0.0
 2001 322    84  29.80  29.00  11.50  6.840  4.985  4.234  0.751  0.000  209.8   50.6  159.2    0.0
 2001 323    85  23.20  30.00  14.50  5.503  4.165  3.475  0.690  0.000  213.9   54.1  159.9    0.0
 2001 324    86  29.70  32.60  15.10  7.269  5.336  4.694  0.642  0.000  219.3   58.8  160.5    0.0
 2001 325    87  14.10  26.80  19.60  3.338  2.805  2.202  0.602  0.000  222.1   61.0  161.1    0.0
 2001 326    88  23.20  29.60  17.40  5.565  4.308  3.738  0.570  0.000  226.4   64.7  161.7    0.0
 2001 327    89  27.40  33.30  18.50  6.886  5.244  4.702  0.542  0.000  231.6   69.4  162.2    0.0
 2001 328    90   8.80  20.20  13.00  1.815  1.815  0.969  0.846  0.000  233.5   70.4  163.1    0.0
 2001 329    91  15.40  19.30  10.10  3.059  3.059  1.639  1.420  0.000  236.5   72.0  164.5    0.0
 2001 330    92   8.80  20.30  16.00  1.863  1.863  1.002  0.862  0.000  238.4   73.0  165.3    0.0
 2001 331    93  29.20  24.80  15.60  6.511  6.511  3.513  2.998  0.000  244.9   76.5  168.3    0.0
 2001 332    94  30.90  23.60  12.10  6.599  6.599  3.919  2.680  0.000  251.5   80.5  171.0    0.0
 2001 333    95  26.10  23.00  12.00  5.527  5.527  2.983  2.544  0.000  257.0   83.4  173.6    0.0
 2001 334    96   8.90  17.20  12.80  1.759  1.759  0.950  0.809  0.000  258.8   84.4  174.4    0.0
 2001 335    97  29.70  24.20  12.40  6.406  6.406  3.457  2.949  0.000  265.2   87.8  177.3    0.0
 2001 336    98  28.20  25.30  12.80  6.185  6.185  4.198  1.987  0.000  271.4   92.0  179.3    0.0
 2001 337    99  10.70  20.70  13.90  2.236  2.236  1.210  1.026  0.000  273.6   93.3  180.3    0.0
 2001 338   100  10.30  22.30  14.00  2.198  2.198  1.190  1.008  0.000  275.8   94.4  181.4    0.0
 2001 339   101  15.30  22.60  16.60  3.348  3.348  1.813  1.534  0.000  279.1   96.3  182.9    0.0
 2001 340   102  21.60  24.90  15.40  4.812  4.717  3.366  1.351  0.000  283.9   99.6  184.2    0.0
 2001 341   103  26.00  28.30  14.60  5.990  5.262  4.195  1.067  0.000  289.1  103.8  185.3    0.0
 2001 342   104  28.40  18.90  11.50  5.674  4.885  3.975  0.910  0.000  294.0  107.8  186.2    0.0
 2001 343   105  30.30  21.50   5.40  5.936  4.960  4.153  0.807  0.000  299.0  111.9  187.0    0.0
 2001 344   106  28.80  24.60  11.00  6.168  5.044  4.311  0.733  0.000  304.0  116.3  187.8    0.0
 2001 345   107  23.40  25.00  10.50  5.016  4.179  3.503  0.676  0.000  308.2  119.8  188.4    0.0
 2001 346   108  19.60  29.20  15.40  4.592  3.835  3.204  0.630  0.000  312.0  123.0  189.1    0.0
 2001 347   109  19.30  28.10  19.20  4.597  3.796  3.203  0.593  0.000  315.8  126.2  189.7    0.0
 2001 348   110  22.70  26.80  19.10  5.325  5.325  2.871  2.453  0.000  321.1  129.0  192.1    0.0
 2001 349   111  27.00  25.80  16.00  6.113  6.113  3.289  2.824  0.000  327.3  132.3  194.9    0.0
 2001 350   112  24.50  25.70  13.80  5.446  5.446  3.643  1.804  0.000  332.7  136.0  196.7    0.0
 2001 351   113  30.80  28.30  12.90  7.014  7.014  4.431  2.582  0.000  339.7  140.4  199.3    0.0
 2001 352   114  30.70  27.80  13.70  6.996  6.218  4.814  1.403  0.000  345.9  145.2  200.7    0.0
 2001 353   115  18.50  30.00  15.90  4.398  4.109  3.017  1.091  0.000  350.0  148.2  201.8    0.0
 2001 354   116  16.80  31.00  18.70  4.125  3.744  2.819  0.925  0.000  353.8  151.1  202.7    0.0
 2001 355   117   9.10  20.40  15.70  1.928  1.928  1.015  0.913  0.000  355.7  152.1  203.6    0.0
 2001 356   118  28.40  24.30  16.10  6.337  6.337  3.323  3.014  0.000  362.1  155.4  206.7    0.0
 2001 357   119  31.00  26.80  10.40  6.812  6.812  4.030  2.782  0.000  368.9  159.4  209.4    0.0
 2001 358   120  29.70  27.10  13.30  6.706  6.706  3.844  2.862  0.000  375.6  163.3  212.3    0.0
 2001 359   121  31.60  28.30  13.70  7.262  6.300  4.871  1.429  0.000  381.9  168.1  213.7    0.0
 2001 360   122  31.40  30.40  14.50  7.441  6.074  4.970  1.103  0.000  387.9  173.1  214.8    0.0
 2001 361   123  30.20  31.60  17.50  7.418  5.867  4.934  0.932  0.000  393.8  178.0  215.8    0.0
 2001 362   124  28.50  31.00  16.80  6.922  5.406  4.584  0.822  0.000  399.2  182.6  216.6    0.0
 2001 363   125  26.60  30.00  18.60  6.478  6.478  3.294  3.184  0.000  405.7  185.9  219.8    0.0
 2001 364   126  25.90  31.40  18.80  6.417  6.417  3.247  3.171  0.000  412.1  189.2  222.9    0.0
 2001 365   127  19.00  31.30  18.90  4.708  4.708  2.370  2.339  0.000  416.8  191.5  225.3    0.0
 2002 001   128  30.50  28.40  16.80  7.209  7.038  4.682  2.356  0.000  423.9  196.2  227.6    0.0
 2002 002   129  27.00  28.20  17.60  6.409  6.242  4.142  2.100  0.000  430.1  200.4  229.7    0.0
 2002 003   130  30.90  27.40  16.70  7.222  5.967  4.644  1.323  0.000  436.1  205.0  231.1    0.0
 2002 004   131  25.70  28.00  15.90  6.014  4.900  3.847  1.053  0.000  441.0  208.9  232.1    0.0
 2002 005   132   9.10  21.90  18.90  2.030  2.030  0.995  1.035  0.000  443.0  209.8  233.2    0.0
 2002 006   133  18.10  24.80  17.90  4.149  4.149  2.022  2.127  0.000  447.1  211.9  235.3    0.0
 2002 007   134  29.60  23.80  13.70  6.485  6.485  3.144  3.342  0.000  453.6  215.0  238.6    0.0
 2002 008   135  31.30  28.60  11.80  7.159  6.923  4.486  2.437  0.000  460.6  219.5  241.1    0.0
 2002 009   136  27.00  27.20  15.70  6.266  5.985  3.905  2.080  0.000  466.5  223.4  243.1    0.0
 2002 010   137  28.40  29.10  15.70  6.740  5.496  4.177  1.319  0.000  472.0  227.6  244.5    0.0
 2002 011   138  25.50  30.40  18.30  6.264  4.910  3.859  1.051  0.000  476.9  231.4  245.5    0.0
 2002 012   139  30.40  32.30  18.60  7.645  5.581  4.681  0.900  0.000  482.5  236.1  246.4    0.0
 2002 013   140  27.80  32.60  19.80  7.078  7.078  3.312  3.765  0.000  489.6  239.4  250.2    0.0
 2002 014   141  12.90  23.70  14.90  2.861  2.861  1.330  1.531  0.000  492.5  240.8  251.7    0.0
 2002 015   142  29.40  23.30  11.00  6.286  6.286  2.906  3.380  0.000  498.8  243.7  255.1    0.0
 2002 016   143  29.90  24.00  11.30  6.469  6.093  3.867  2.226  0.000  504.8  247.5  257.3    0.0
 2002 017   144  25.10  25.60  12.20  5.583  5.400  3.318  2.081  0.000  510.2  250.9  259.4    0.0
 2002 018   145  29.50  24.90  13.20  6.562  5.197  3.878  1.319  0.000  515.4  254.7  260.7    0.0
 2002 019   146  30.50  28.70  13.40  7.114  5.229  4.178  1.051  0.000  520.7  258.9  261.8    0.0
 2002 020   147  25.20  34.50  17.40  6.460  6.171  3.771  2.400  0.000  526.8  262.7  264.2    0.0
 2002 021   148  18.90  29.00  20.00  4.655  3.679  2.698  0.981  0.000  530.5  265.4  265.1    0.0
 2002 022   149  27.50  32.30  19.30  6.988  4.878  4.023  0.855  0.000  535.4  269.4  266.0    0.0
 2002 023   150  25.00  33.00  17.30  6.314  6.314  2.778  3.536  0.000  541.7  272.2  269.5    0.0
 2002 024   151  13.50  29.40  19.60  3.336  3.336  1.458  1.878  0.000  545.1  273.6  271.4    0.0
 2002 025   152  26.00  29.30  19.30  6.407  6.407  2.782  3.625  0.000  551.5  276.4  275.0    0.0
 2002 026   153  12.60  25.80  18.80  3.010  2.726  1.453  1.274  0.000  554.2  277.9  276.3    0.0
 2002 027   154  17.30  26.60  19.80  4.250  4.250  1.367  2.883  0.000  558.4  279.2  279.2    0.0
 2002 028   155  29.90  31.20  16.40  7.616  6.130  2.593  3.537  0.000  564.6  281.8  282.7    0.0
 2002 029   156  29.70  33.10  16.30  7.786  3.738  2.194  1.544  0.000  568.3  284.0  284.3    0.0
 2002 030   157  27.50  30.90  18.00  7.179  7.179  1.169  6.010  0.000  575.5  285.2  290.3    0.0
 2002 031   158  20.90  27.70  19.10  5.342  4.500  1.010  3.490  0.000  580.0  286.2  293.8    0.0
 2002 032   159  29.80  25.40  16.60  7.315  2.576  1.126  1.450  0.000  582.6  287.3  295.2    0.0
 2002 033   160  28.80  24.70  12.20  6.796  1.960  0.848  1.112  0.000  584.5  288.2  296.3    0.0
 2002 034   161  28.90  24.40  11.50  6.779  1.621  0.684  0.938  0.000  586.1  288.9  297.3    0.0
 2002 035   162  28.30  27.10  13.60  6.997  1.396  0.570  0.826  0.000  587.5  289.4  298.1    0.0
 2002 036   163  18.20  27.80  15.40  4.611  1.050  0.303  0.747  0.000  588.6  289.7  298.8    0.0

*DSSAT Cropping System Model Ver. 4.0.2.000               Aug 29, 2016; 09:16:37

*RUN   3        : UYSB                    
 MODEL          : CRGRO040 - Soybean         
 EXPERIMENT     : UYSB0405 SB    late to create DSS                             
 TREATMENT  1   : UYSB                    

@YEAR DOY   DAS   SRAA   TMXA   TMNA   EOAA   ETAA   EPAA   ESAA   EFAD   ETAC   EPAC   ESAC   EFAC
 2002 238     0  18.10  32.00  20.20  5.027  3.759  0.000  3.759  0.000    3.8    0.0    3.8    0.0
 2002 239     1  18.10  27.00  18.00  4.680  2.081  0.000  2.081  0.000    5.8    0.0    5.8    0.0
 2002 240     2  14.80  28.20  16.20  3.827  3.051  0.000  3.051  0.000    8.9    0.0    8.9    0.0
 2002 241     3   9.00  18.00  10.30  1.951  1.951  0.000  1.951  0.000   10.8    0.0   10.8    0.0
 2002 242     4  18.40  14.30   6.40  3.645  3.386  0.000  3.386  0.000   14.2    0.0   14.2    0.0
 2002 243     5  16.00  12.00   4.10  2.988  2.988  0.000  2.988  0.000   17.2    0.0   17.2    0.0
 2002 244     6  12.50  10.50   2.90  2.249  1.487  0.000  1.487  0.000   18.7    0.0   18.7    0.0
 2002 245     7  18.70  13.70   0.30  3.446  1.129  0.000  1.129  0.000   19.8    0.0   19.8    0.0
 2002 246     8  17.30  16.20   3.10  3.412  0.947  0.000  0.947  0.000   20.8    0.0   20.8    0.0
 2002 247     9  19.60  20.30   4.20  4.146  4.146  0.000  4.146  0.000   24.9    0.0   24.9    0.0
 2002 248    10  16.90  23.00   7.00  3.803  3.803  0.000  3.803  0.000   28.7    0.0   28.7    0.0
 2002 249    11   5.70  16.70   6.70  1.173  1.173  0.000  1.173  0.000   29.9    0.0   29.9    0.0
 2002 250    12  16.80  15.40   4.80  3.330  3.330  0.000  3.330  0.000   33.2    0.0   33.2    0.0
 2002 251    13  19.00  16.10   4.20  3.782  2.868  0.000  2.868  0.000   36.1    0.0   36.1    0.0
 2002 252    14  19.20  19.00   7.00  4.093  2.388  0.000  2.388  0.000   38.5    0.0   38.5    0.0
 2002 253    15   5.90  18.20   9.50  1.272  1.272  0.003  1.269  0.000   39.8    0.0   39.8    0.0
 2002 254    16   6.00  17.10  15.50  1.345  1.345  0.004  1.342  0.000   41.1    0.0   41.1    0.0
 2002 255    17  18.60  17.40   9.90  3.981  3.981  0.012  3.969  0.000   45.1    0.0   45.1    0.0
 2002 256    18  20.70  18.20   6.90  4.357  2.903  0.022  2.882  0.000   48.0    0.0   47.9    0.0
 2002 257    19  20.40  18.40   7.50  4.330  1.960  0.023  1.937  0.000   49.9    0.1   49.9    0.0
 2002 258    20  14.90  17.10   9.00  3.149  1.301  0.017  1.284  0.000   51.2    0.1   51.2    0.0
 2002 259    21   9.30  18.00  10.20  2.012  1.612  0.012  1.600  0.000   52.9    0.1   52.8    0.0
 2002 260    22   6.30  19.20  15.00  1.445  1.110  0.009  1.101  0.000   54.0    0.1   53.9    0.0
 2002 261    23   6.90  19.10  13.80  1.564  1.564  0.006  1.558  0.000   55.5    0.1   55.4    0.0
 2002 262    24   8.70  20.20   7.50  1.892  1.892  0.008  1.884  0.000   57.4    0.1   57.3    0.0
 2002 263    25  20.70  15.70   5.20  4.133  4.133  0.018  4.115  0.000   61.6    0.1   61.4    0.0
 2002 264    26  21.00  17.70   5.50  4.329  2.618  0.032  2.586  0.000   64.2    0.2   64.0    0.0
 2002 265    27  19.50  21.80   6.00  4.276  1.798  0.032  1.766  0.000   66.0    0.2   65.8    0.0
 2002 266    28  21.90  19.10   8.10  4.717  1.270  0.037  1.233  0.000   67.2    0.2   67.0    0.0
 2002 267    29  22.20  21.10   5.40  4.795  1.045  0.039  1.006  0.000   68.3    0.3   68.0    0.0
 2002 268    30  22.90  25.10   9.20  5.388  0.917  0.045  0.872  0.000   69.2    0.3   68.9    0.0
 2002 269    31  22.00  25.00   7.80  5.109  0.825  0.045  0.780  0.000   70.0    0.4   69.7    0.0
 2002 270    32  22.10  26.40  10.00  5.319  0.761  0.049  0.712  0.000   70.8    0.4   70.4    0.0
 2002 271    33  18.10  29.40  14.60  4.680  0.709  0.050  0.660  0.000   71.5    0.5   71.0    0.0
 2002 272    34   6.80  17.40  15.50  1.529  1.529  0.012  1.517  0.000   73.0    0.5   72.6    0.0
 2002 273    35  15.40  20.40  13.20  3.528  3.528  0.031  3.498  0.000   76.6    0.5   76.1    0.0
 2002 274    36  18.00  21.60  10.30  4.084  2.884  0.063  2.821  0.000   79.4    0.6   78.9    0.0
 2002 275    37  15.10  24.60  12.70  3.631  3.631  0.037  3.593  0.000   83.1    0.6   82.5    0.0
 2002 276    38  22.90  23.00  15.10  5.505  4.329  0.101  4.228  0.000   87.4    0.7   86.7    0.0
 2002 277    39  14.70  25.90  12.50  3.583  2.199  0.074  2.124  0.000   89.6    0.8   88.8    0.0
 2002 278    40  14.90  23.70  18.50  3.709  1.416  0.087  1.329  0.000   91.0    0.9   90.2    0.0
 2002 279    41  14.10  28.70  17.60  3.692  3.692  0.061  3.630  0.000   94.7    0.9   93.8    0.0
 2002 280    42   7.90  21.20  12.30  1.810  1.810  0.034  1.776  0.000   96.5    1.0   95.6    0.0
 2002 281    43   7.20  21.00  15.20  1.686  1.686  0.034  1.652  0.000   98.2    1.0   97.2    0.0
 2002 282    44   7.30  19.10  18.00  1.708  1.708  0.038  1.670  0.000   99.9    1.0   98.9    0.0
 2002 283    45   7.30  19.50  17.60  1.710  1.710  0.043  1.667  0.000  101.6    1.1  100.5    0.0
 2002 284    46   9.20  23.50  17.60  2.262  2.262  0.062  2.200  0.000  103.9    1.1  102.7    0.0
 2002 285    47  20.90  29.00  17.90  5.485  4.310  0.267  4.043  0.000  108.2    1.4  106.8    0.0
 2002 286    48  25.10  30.10  19.80  6.756  2.446  0.369  2.077  0.000  110.6    1.8  108.9    0.0
 2002 287    49  24.30  31.10  20.10  6.619  1.729  0.410  1.318  0.000  112.4    2.2  110.2    0.0
 2002 288    50   8.50  30.20  21.70  2.317  2.317  0.104  2.213  0.000  114.7    2.3  112.4    0.0
 2002 289    51  10.20  20.80  12.80  2.319  2.319  0.117  2.201  0.000  117.0    2.4  114.6    0.0
 2002 290    52  25.70  21.70   9.90  5.760  4.386  0.481  3.906  0.000  121.4    2.9  118.5    0.0
 2002 291    53  24.20  25.70  12.40  5.822  2.389  0.509  1.879  0.000  123.8    3.4  120.4    0.0
 2002 292    54   8.20  24.30  18.90  2.040  2.040  0.130  1.909  0.000  125.8    3.5  122.3    0.0
 2002 293    55   8.30  25.60  13.80  2.009  2.009  0.148  1.862  0.000  127.8    3.7  124.2    0.0
 2002 294    56  20.50  13.00   7.00  3.933  3.551  0.494  3.057  0.000  131.4    4.2  127.2    0.0
 2002 295    57  25.00  18.90   5.00  5.126  3.425  0.656  2.769  0.000  134.8    4.8  130.0    0.0
 2002 296    58  23.30  23.00   7.00  5.141  2.109  0.688  1.422  0.000  136.9    5.5  131.4    0.0
 2002 297    59  24.20  26.20  16.70  6.010  1.965  0.865  1.100  0.000  138.9    6.4  132.5    0.0
 2002 298    60  11.90  22.60  15.80  2.801  1.394  0.464  0.930  0.000  140.3    6.8  133.4    0.0
 2002 299    61  24.00  27.70  16.80  6.033  6.033  0.755  5.277  0.000  146.3    7.6  138.7    0.0
 2002 300    62   8.30  24.70  18.90  2.040  1.766  0.432  1.334  0.000  148.1    8.0  140.0    0.0
 2002 301    63  18.00  26.90  17.80  4.486  4.486  0.727  3.759  0.000  152.6    8.8  143.8    0.0
 2002 302    64  12.70  18.20  11.60  2.687  2.687  0.502  2.184  0.000  155.2    9.3  146.0    0.0
 2002 303    65   8.90  19.90   9.90  1.894  1.454  0.518  0.936  0.000  156.7    9.8  146.9    0.0
 2002 304    66  26.60  23.10  12.10  6.004  4.436  1.707  2.729  0.000  161.1   11.5  149.7    0.0
 2002 305    67  25.60  23.20  12.40  5.783  3.178  1.759  1.418  0.000  164.3   13.2  151.1    0.0
 2002 306    68  22.10  25.30  15.10  5.220  2.792  1.693  1.098  0.000  167.1   14.9  152.2    0.0
 2002 307    69   8.20  17.40  13.70  1.726  1.726  0.459  1.267  0.000  168.8   15.4  153.4    0.0
 2002 308    70  15.80  16.00  10.50  3.163  3.163  0.871  2.292  0.000  172.0   16.3  155.7    0.0
 2002 309    71  28.00  19.20   7.40  5.689  5.522  2.097  3.426  0.000  177.5   18.4  159.2    0.0
 2002 310    72  28.10  21.60   8.90  5.968  4.909  2.258  2.651  0.000  182.4   20.6  161.8    0.0
 2002 311    73  25.70  26.00  12.20  5.921  3.733  2.322  1.411  0.000  186.2   22.9  163.2    0.0
 2002 312    74  26.10  28.20  14.70  6.274  3.694  2.599  1.095  0.000  189.9   25.5  164.3    0.0
 2002 313    75  10.40  20.60  16.30  2.302  2.302  0.817  1.485  0.000  192.2   26.4  165.8    0.0
 2002 314    76  19.20  17.70  10.80  3.891  3.891  1.452  2.440  0.000  196.0   27.8  168.2    0.0
 2002 315    77   8.50  22.80  12.30  1.864  1.864  0.712  1.152  0.000  197.9   28.5  169.4    0.0
 2002 316    78  28.80  27.40   9.90  6.541  5.851  3.117  2.734  0.000  203.8   31.6  172.1    0.0
 2002 317    79  28.90  30.40  12.80  6.939  5.559  3.429  2.130  0.000  209.3   35.1  174.3    0.0
 2002 318    80  22.00  30.00  17.30  5.423  5.423  2.703  2.720  0.000  214.7   37.8  177.0    0.0
 2002 319    81  15.70  24.90  19.50  3.702  3.504  1.981  1.523  0.000  218.2   39.8  178.5    0.0
 2002 320    82  29.00  30.40  18.00  7.175  5.118  3.974  1.144  0.000  223.4   43.7  179.6    0.0
 2002 321    83  10.30  27.60  20.30  2.506  2.388  1.431  0.956  0.000  225.8   45.2  180.6    0.0
 2002 322    84  28.70  28.60  19.20  6.992  4.915  4.076  0.839  0.000  230.7   49.2  181.4    0.0
 2002 323    85  18.70  27.70  15.30  4.371  4.371  1.998  2.373  0.000  235.0   51.2  183.8    0.0
 2002 324    86   9.40  24.40  18.80  2.169  2.169  1.010  1.159  0.000  237.2   52.2  185.0    0.0
 2002 325    87  22.30  24.00  15.20  4.969  4.969  2.348  2.622  0.000  242.2   54.6  187.6    0.0
 2002 326    88  29.70  24.60  11.50  6.463  6.463  3.548  2.915  0.000  248.6   58.1  190.5    0.0
 2002 327    89  28.80  31.00  15.10  6.945  6.945  4.073  2.873  0.000  255.6   62.2  193.4    0.0
 2002 328    90  18.70  29.00  22.10  4.641  4.641  2.254  2.386  0.000  260.2   64.5  195.8    0.0
 2002 329    91   9.70  24.60  19.00  2.238  2.238  1.086  1.153  0.000  262.5   65.5  196.9    0.0
 2002 330    92  24.00  28.30  18.50  5.755  5.755  2.795  2.960  0.000  268.2   68.3  199.9    0.0
 2002 331    93  13.80  29.30  18.60  3.349  3.349  1.624  1.725  0.000  271.6   70.0  201.6    0.0
 2002 332    94  10.40  19.00  14.80  2.164  2.099  1.366  0.732  0.000  273.7   71.3  202.3    0.0
 2002 333    95   8.90  23.60  16.90  1.996  1.996  0.969  1.028  0.000  275.7   72.3  203.4    0.0
 2002 334    96  22.90  28.70  19.40  5.555  5.555  2.690  2.865  0.000  281.2   75.0  206.2    0.0
 2002 335    97   9.00  20.00  16.80  1.931  1.931  0.931  1.000  0.000  283.1   75.9  207.2    0.0
 2002 336    98  29.00  24.10  14.40  6.420  6.420  3.080  3.339  0.000  289.6   79.0  210.6    0.0
 2002 337    99  21.40  26.60  14.90  4.902  4.902  2.344  2.559  0.000  294.5   81.3  213.1    0.0
 2002 338   100  10.30  21.00  17.80  2.258  2.258  1.075  1.183  0.000  296.7   82.4  214.3    0.0
 2002 339   101  17.30  27.80  19.90  4.178  4.178  1.981  2.197  0.000  300.9   84.4  216.5    0.0
 2002 340   102  10.20  25.80  19.80  2.407  2.407  1.137  1.270  0.000  303.3   85.5  217.8    0.0
 2002 341   103  15.10  24.60  15.10  3.388  3.388  1.593  1.795  0.000  306.7   87.1  219.6    0.0
 2002 342   104  27.20  22.60  11.50  5.782  5.660  3.520  2.139  0.000  312.4   90.7  221.7    0.0
 2002 343   105  28.00  25.00  15.70  6.348  6.219  3.850  2.369  0.000  318.6   94.5  224.1    0.0
 2002 344   106  13.50  22.90  16.10  2.995  2.863  1.809  1.054  0.000  321.4   96.3  225.1    0.0
 2002 345   107  30.40  27.60  18.60  7.270  7.144  4.372  2.771  0.000  328.6  100.7  227.9    0.0
 2002 346   108  24.20  25.80  16.90  5.598  4.773  3.351  1.422  0.000  333.4  104.0  229.3    0.0
 2002 347   109  17.90  25.00  17.00  4.107  3.547  2.447  1.100  0.000  336.9  106.5  230.4    0.0
 2002 348   110  21.70  29.10  18.80  5.292  4.070  3.139  0.930  0.000  341.0  109.6  231.4    0.0
 2002 349   111  20.90  29.60  19.80  5.165  3.870  3.049  0.821  0.000  344.8  112.7  232.2    0.0
 2002 350   112  29.60  27.90  19.30  7.155  4.946  4.203  0.743  0.000  349.8  116.9  232.9    0.0
 2002 351   113  26.00  26.40  17.00  6.074  4.234  3.550  0.684  0.000  354.0  120.4  233.6    0.0
 2002 352   114  31.90  27.90  13.60  7.389  7.389  3.307  4.082  0.000  361.4  123.7  237.7    0.0
 2002 353   115   9.10  21.20  15.70  1.978  1.978  0.881  1.097  0.000  363.4  124.6  238.8    0.0
 2002 354   116  22.80  25.00  16.20  5.213  5.213  2.312  2.901  0.000  368.6  126.9  241.7    0.0
 2002 355   117  30.80  27.10  14.00  7.098  7.098  3.918  3.181  0.000  375.7  130.8  244.9    0.0
 2002 356   118   9.50  28.90  18.60  2.316  2.316  1.017  1.299  0.000  378.0  131.9  246.2    0.0
 2002 357   119  12.60  18.30  11.60  2.550  2.550  1.113  1.437  0.000  380.6  133.0  247.6    0.0
 2002 358   120  26.70  23.20  11.60  5.762  5.762  2.504  3.258  0.000  386.3  135.5  250.9    0.0
 2002 359   121  31.60  27.20  12.20  7.201  6.497  4.042  2.455  0.000  392.8  139.5  253.3    0.0
 2002 360   122  31.80  30.10  15.60  7.698  6.121  4.298  1.822  0.000  399.0  143.8  255.1    0.0
 2002 361   123  31.40  34.00  17.60  8.053  5.720  4.469  1.251  0.000  404.7  148.3  256.4    0.0
 2002 362   124   9.10  27.20  21.40  2.229  2.229  1.213  1.016  0.000  406.9  149.5  257.4    0.0
 2002 363   125   9.10  28.60  20.90  2.257  2.114  1.237  0.878  0.000  409.0  150.7  258.3    0.0
 2002 364   126  15.10  28.20  18.70  3.670  3.670  1.540  2.130  0.000  412.7  152.3  260.4    0.0
 2002 365   127  10.80  24.70  18.20  2.513  2.234  1.357  0.877  0.000  414.9  153.6  261.3    0.0
 2003 001   128  18.80  26.10  18.40  4.456  3.174  2.390  0.784  0.000  418.1  156.0  262.1    0.0
 2003 002   129  22.70  26.10  17.50  5.347  3.561  2.846  0.715  0.000  421.7  158.9  262.8    0.0
 2003 003   130   9.90  25.10  17.50  2.306  1.880  1.218  0.662  0.000  423.5  160.1  263.4    0.0
 2003 004   131  30.40  29.60  18.40  7.510  4.557  3.938  0.619  0.000  428.1  164.0  264.1    0.0
 2003 005   132  28.70  31.30  16.40  7.124  4.289  3.706  0.584  0.000  432.4  167.7  264.6    0.0
 2003 006   133  30.90  27.20  16.50  7.332  4.339  3.785  0.554  0.000  436.7  171.5  265.2    0.0
 2003 007   134  31.30  29.70  14.70  7.543  4.393  3.865  0.528  0.000  441.1  175.4  265.7    0.0
 2003 008   135  29.90  30.60  14.80  7.289  7.289  2.874  4.415  0.000  448.4  178.3  270.1    0.0
 2003 009   136  25.30  30.00  19.80  6.361  6.361  2.492  3.869  0.000  454.8  180.7  274.0    0.0
 2003 010   137  11.60  27.80  20.80  2.869  2.869  1.226  1.644  0.000  457.6  182.0  275.7    0.0
 2003 011   138  23.60  30.00  17.60  5.845  5.361  2.907  2.454  0.000  463.0  184.9  278.1    0.0
 2003 012   139  31.30  29.90  16.10  7.662  6.164  3.783  2.381  0.000  469.2  188.7  280.5    0.0
 2003 013   140  30.70  29.50  13.30  7.328  4.968  3.592  1.376  0.000  474.1  192.3  281.9    0.0
 2003 014   141  30.50  31.20  16.20  7.589  4.774  3.695  1.079  0.000  478.9  195.9  282.9    0.0
 2003 015   142  27.20  31.70  18.70  6.933  4.271  3.353  0.917  0.000  483.2  199.3  283.9    0.0
 2003 016   143  27.70  31.80  20.20  7.148  4.246  3.434  0.812  0.000  487.4  202.7  284.7    0.0
 2003 017   144  27.30  33.70  19.90  7.176  4.160  3.424  0.737  0.000  491.6  206.2  285.4    0.0
 2003 018   145  28.50  27.70  17.10  6.877  3.938  3.259  0.679  0.000  495.5  209.4  286.1    0.0
 2003 019   146  25.60  31.90  14.90  6.373  6.373  2.493  3.880  0.000  501.9  211.9  290.0    0.0
 2003 020   147  20.40  27.80  19.70  5.084  4.969  2.019  2.950  0.000  506.9  213.9  292.9    0.0
 2003 021   148  28.40  30.00  17.50  7.206  5.156  2.389  2.767  0.000  512.0  216.3  295.7    0.0
 2003 022   149  15.60  30.50  20.00  4.088  3.092  1.121  1.971  0.000  515.1  217.4  297.7    0.0
 2003 023   150  27.70  26.60  17.60  6.876  3.595  1.548  2.047  0.000  518.7  219.0  299.7    0.0
 2003 024   151  29.20  27.90  11.50  7.060  2.609  1.298  1.311  0.000  521.3  220.3  301.0    0.0
 2003 025   152  26.50  29.70  16.40  6.829  2.068  1.021  1.047  0.000  523.4  221.3  302.1    0.0
 2003 026   153  29.30  30.10  14.90  7.531  1.809  0.911  0.898  0.000  525.2  222.2  303.0    0.0
 2003 027   154  26.80  30.20  14.00  6.873  1.470  0.672  0.798  0.000  526.7  222.9  303.8    0.0
 2003 028   155  29.30  31.80  15.80  7.775  1.339  0.613  0.726  0.000  528.0  223.5  304.5    0.0
 2003 029   156  28.40  32.00  18.30  7.709  1.161  0.490  0.671  0.000  529.2  224.0  305.2    0.0
 2003 030   157  31.60  35.20  19.20  9.027  1.088  0.462  0.626  0.000  530.2  224.5  305.8    0.0

*DSSAT Cropping System Model Ver. 4.0.2.000               Aug 29, 2016; 09:16:37

*RUN   4        : UYSB                    
 MODEL          : CRGRO040 - Soybean         
 EXPERIMENT     : UYSB0405 SB    late to create DSS                             
 TREATMENT  1   : UYSB                    

@YEAR DOY   DAS   SRAA   TMXA   TMNA   EOAA   ETAA   EPAA   ESAA   EFAD   ETAC   EPAC   ESAC   EFAC
 2003 238     0  13.60  12.80  -2.40  2.397  2.397  0.000  2.397  0.000    2.4    0.0    2.4    0.0
 2003 239     1  11.90   9.30   4.10  2.127  2.127  0.000  2.127  0.000    4.5    0.0    4.5    0.0
 2003 240     2  13.40  12.40   4.70  2.534  1.225  0.000  1.225  0.000    5.7    0.0    5.7    0.0
 2003 241     3  14.90  12.60   4.00  2.806  2.806  0.000  2.806  0.000    8.6    0.0    8.6    0.0
 2003 242     4  12.80  14.30   5.30  2.508  2.508  0.000  2.508  0.000   11.1    0.0   11.1    0.0
 2003 243     5  14.60  15.90   4.90  2.918  2.025  0.000  2.025  0.000   13.1    0.0   13.1    0.0
 2003 244     6  19.00  19.40   6.40  4.051  2.408  0.000  2.408  0.000   15.5    0.0   15.5    0.0
 2003 245     7  17.20  21.00   1.80  3.592  1.380  0.000  1.380  0.000   16.9    0.0   16.9    0.0
 2003 246     8  18.60  25.00   6.40  4.274  1.081  0.000  1.081  0.000   18.0    0.0   18.0    0.0
 2003 247     9   8.30  22.50  14.50  1.978  1.504  0.000  1.504  0.000   19.5    0.0   19.5    0.0
 2003 248    10  11.30  26.70  14.70  2.838  2.838  0.000  2.838  0.000   22.3    0.0   22.3    0.0
 2003 249    11  18.60  32.50  18.70  5.138  1.435  0.000  1.435  0.000   23.7    0.0   23.7    0.0
 2003 250    12   5.80  22.50  14.00  1.377  1.377  0.000  1.377  0.000   25.1    0.0   25.1    0.0
 2003 251    13   5.80  15.20   8.90  1.193  1.193  0.000  1.193  0.000   26.3    0.0   26.3    0.0
 2003 252    14  18.20  13.60   4.70  3.506  3.506  0.000  3.506  0.000   29.8    0.0   29.8    0.0
 2003 253    15  20.40  14.40   2.60  3.892  2.865  0.016  2.849  0.000   32.7    0.0   32.7    0.0
 2003 254    16  20.20  18.10   1.40  4.027  2.295  0.017  2.279  0.000   35.0    0.0   34.9    0.0
 2003 255    17  21.00  21.60   3.10  4.474  1.378  0.019  1.359  0.000   36.4    0.1   36.3    0.0
 2003 256    18  21.20  14.10   6.10  4.172  1.090  0.019  1.070  0.000   37.4    0.1   37.4    0.0
 2003 257    19  20.60  13.90   1.20  3.842  0.930  0.018  0.912  0.000   38.4    0.1   38.3    0.0
 2003 258    20  20.70  15.70   3.30  4.057  0.828  0.019  0.809  0.000   39.2    0.1   39.1    0.0
 2003 259    21  18.70  15.40   5.00  3.711  0.752  0.018  0.734  0.000   40.0    0.1   39.8    0.0
 2003 260    22  17.70  16.90   4.20  3.563  0.695  0.018  0.677  0.000   40.6    0.1   40.5    0.0
 2003 261    23  19.80  21.90   5.00  4.310  0.654  0.023  0.631  0.000   41.3    0.2   41.1    0.0
 2003 262    24   7.30  25.70  10.60  1.752  1.752  0.006  1.746  0.000   43.1    0.2   42.9    0.0
 2003 263    25  21.20  19.10   4.80  4.430  0.699  0.027  0.673  0.000   43.7    0.2   43.6    0.0
 2003 264    26  13.90  22.00   8.90  3.136  3.136  0.012  3.124  0.000   46.9    0.2   46.7    0.0
 2003 265    27  11.50  24.10  15.80  2.822  2.822  0.011  2.811  0.000   49.7    0.2   49.5    0.0
 2003 266    28   9.00  20.10  14.20  2.074  2.074  0.009  2.065  0.000   51.8    0.2   51.6    0.0
 2003 267    29  15.50  19.80  11.00  3.460  2.492  0.026  2.466  0.000   54.3    0.3   54.0    0.0
 2003 268    30  16.20  19.20   7.90  3.488  2.356  0.028  2.329  0.000   56.6    0.3   56.3    0.0
 2003 269    31  11.00  19.00   9.80  2.403  1.387  0.020  1.368  0.000   58.0    0.3   57.7    0.0
 2003 270    32  15.30  23.50  12.30  3.621  2.527  0.031  2.496  0.000   60.5    0.3   60.2    0.0
 2003 271    33  15.00  16.30   6.30  3.053  2.242  0.028  2.215  0.000   62.8    0.4   62.4    0.0
 2003 272    34  23.30  18.00   2.10  4.667  1.390  0.043  1.347  0.000   64.2    0.4   63.8    0.0
 2003 273    35  23.90  22.00   8.20  5.357  1.115  0.050  1.065  0.000   65.3    0.5   64.8    0.0
 2003 274    36  17.70  27.00  10.30  4.301  0.954  0.045  0.909  0.000   66.2    0.5   65.7    0.0
 2003 275    37  12.90  23.00  12.60  3.040  0.843  0.037  0.806  0.000   67.1    0.5   66.6    0.0
 2003 276    38   7.00  21.20  11.90  1.602  1.602  0.013  1.589  0.000   68.7    0.6   68.1    0.0
 2003 277    39   7.00  19.40  16.20  1.624  1.624  0.015  1.609  0.000   70.3    0.6   69.7    0.0
 2003 278    40  11.00  23.80  15.50  2.680  2.680  0.027  2.652  0.000   73.0    0.6   72.4    0.0
 2003 279    41  20.30  20.60  12.20  4.620  3.520  0.084  3.436  0.000   76.5    0.7   75.8    0.0
 2003 280    42  21.60  24.20  11.20  5.102  2.294  0.102  2.192  0.000   78.8    0.8   78.0    0.0
 2003 281    43   9.70  27.00  15.60  2.454  2.454  0.034  2.420  0.000   81.3    0.8   80.4    0.0
 2003 282    44  22.40  23.40  13.20  5.321  4.710  0.135  4.574  0.000   86.0    0.9   85.0    0.0
 2003 283    45  13.80  13.60   7.40  2.721  2.720  0.076  2.644  0.000   88.7    1.0   87.7    0.0
 2003 284    46  25.30  15.20   3.90  4.933  1.552  0.142  1.410  0.000   90.2    1.2   89.1    0.0
 2003 285    47  25.50  16.30   3.20  5.019  1.242  0.148  1.095  0.000   91.5    1.3   90.2    0.0
 2003 286    48  25.40  20.10   4.30  5.339  1.088  0.161  0.927  0.000   92.6    1.5   91.1    0.0
 2003 287    49  25.40  24.80   8.00  5.874  1.004  0.185  0.819  0.000   93.6    1.7   91.9    0.0
 2003 288    50  25.80  26.40  11.80  6.279  0.952  0.211  0.742  0.000   94.5    1.9   92.7    0.0
 2003 289    51  26.40  30.80  12.70  6.810  0.940  0.257  0.683  0.000   95.5    2.1   93.3    0.0
 2003 290    52  21.90  30.30  16.30  5.767  0.883  0.247  0.636  0.000   96.4    2.4   94.0    0.0
 2003 291    53  17.90  32.90  19.00  4.941  3.200  0.240  2.960  0.000   99.6    2.6   96.9    0.0
 2003 292    54  22.40  23.90  14.40  5.384  0.938  0.296  0.643  0.000  100.5    2.9   97.6    0.0
 2003 293    55  10.90  21.20  11.10  2.461  0.751  0.147  0.603  0.000  101.2    3.1   98.2    0.0
 2003 294    56  25.50  23.50  12.00  5.971  0.953  0.383  0.570  0.000  102.2    3.4   98.8    0.0
 2003 295    57  26.90  24.20   9.10  6.197  0.971  0.429  0.542  0.000  103.2    3.9   99.3    0.0
 2003 296    58  27.30  27.20  11.00  6.626  1.006  0.488  0.518  0.000  104.2    4.4   99.8    0.0
 2003 297    59  22.90  32.00  14.80  6.045  0.976  0.480  0.497  0.000  105.2    4.8  100.3    0.0
 2003 298    60  11.40  24.90  19.20  2.867  2.867  0.160  2.708  0.000  108.0    5.0  103.0    0.0
 2003 299    61  21.10  25.90  14.70  5.172  4.741  0.524  4.217  0.000  112.8    5.5  107.2    0.0
 2003 300    62  27.30  20.80   8.40  5.938  3.388  0.693  2.696  0.000  116.1    6.2  109.9    0.0
 2003 301    63  27.40  23.80   9.00  6.224  2.192  0.776  1.415  0.000  118.3    7.0  111.3    0.0
 2003 302    64  27.50  26.40  10.80  6.539  1.990  0.893  1.097  0.000  120.3    7.9  112.4    0.0
 2003 303    65  27.90  31.30  15.90  7.288  2.043  1.115  0.929  0.000  122.4    9.0  113.4    0.0
 2003 304    66  10.40  19.90  11.50  2.277  2.277  0.271  2.006  0.000  124.7    9.3  115.4    0.0
 2003 305    67  27.90  18.60   8.10  5.813  5.546  1.089  4.456  0.000  130.2   10.4  119.8    0.0
 2003 306    68  27.80  20.00   4.50  5.704  3.817  1.120  2.697  0.000  134.0   11.5  122.5    0.0
 2003 307    69  27.80  21.20   5.00  5.819  2.614  1.198  1.415  0.000  136.6   12.7  123.9    0.0
 2003 308    70  25.00  22.40   9.50  5.525  2.299  1.202  1.097  0.000  138.9   13.9  125.0    0.0
 2003 309    71  28.00  24.60  11.10  6.434  2.437  1.508  0.929  0.000  141.4   15.4  126.0    0.0
 2003 310    72  25.10  26.60  13.50  6.006  2.363  1.543  0.820  0.000  143.7   16.9  126.8    0.0
 2003 311    73  25.30  27.80  14.80  6.175  2.515  1.772  0.742  0.000  146.2   18.7  127.5    0.0
 2003 312    74  21.00  29.70  14.90  5.216  2.357  1.673  0.683  0.000  148.6   20.4  128.2    0.0
 2003 313    75  16.70  29.60  18.00  4.218  2.141  1.504  0.636  0.000  150.7   21.9  128.9    0.0
 2003 314    76  27.50  30.40  14.90  6.808  3.297  2.699  0.598  0.000  154.0   24.6  129.5    0.0
 2003 315    77  24.40  33.80  16.50  6.309  6.309  2.208  4.100  0.000  160.3   26.8  133.6    0.0
 2003 316    78  12.00  20.20  13.90  2.577  2.577  1.010  1.568  0.000  162.9   27.8  135.1    0.0
 2003 317    79  24.50  19.50  11.30  5.082  5.082  2.111  2.971  0.000  168.0   29.9  138.1    0.0
 2003 318    80  28.50  22.70   8.20  5.987  5.760  3.035  2.724  0.000  173.8   32.9  140.8    0.0
 2003 319    81  27.30  29.30  11.70  6.387  6.387  2.593  3.794  0.000  180.1   35.5  144.6    0.0
 2003 320    82   8.60  21.90  17.70  1.924  1.924  0.820  1.104  0.000  182.1   36.4  145.7    0.0
 2003 321    83  15.00  26.60  16.30  3.498  3.498  1.551  1.947  0.000  185.6   37.9  147.7    0.0
 2003 322    84  11.50  18.10  13.20  2.342  2.342  1.088  1.254  0.000  187.9   39.0  148.9    0.0
 2003 323    85  26.20  25.50  13.80  5.878  5.878  2.780  3.098  0.000  193.8   41.8  152.0    0.0
 2003 324    86  29.80  20.20  11.20  6.098  6.098  3.577  2.521  0.000  199.9   45.4  154.5    0.0
 2003 325    87  30.50  25.70   9.80  6.605  6.605  3.871  2.735  0.000  206.5   49.2  157.3    0.0
 2003 326    88  29.70  33.10  15.60  7.313  6.289  4.870  1.419  0.000  212.8   54.1  158.7    0.0
 2003 327    89  27.30  34.10  19.20  6.949  6.949  3.697  3.253  0.000  219.7   57.8  161.9    0.0
 2003 328    90   8.80  19.40  15.40  1.829  1.829  1.006  0.823  0.000  221.6   58.8  162.8    0.0
 2003 329    91  27.90  27.60  13.40  6.302  6.302  3.858  2.444  0.000  227.9   62.7  165.2    0.0
 2003 330    92  17.00  29.50  18.00  4.055  4.055  2.315  1.741  0.000  231.9   65.0  166.9    0.0
 2003 331    93  30.00  29.20  17.40  7.086  7.086  4.137  2.948  0.000  239.0   69.1  169.9    0.0
 2003 332    94  15.70  27.50  14.70  3.556  3.556  2.169  1.386  0.000  242.6   71.3  171.3    0.0
 2003 333    95  31.00  29.10  14.00  7.103  7.103  4.304  2.799  0.000  249.7   75.6  174.1    0.0
 2003 334    96  11.50  22.20  16.50  2.473  2.473  1.520  0.953  0.000  252.1   77.1  175.0    0.0
 2003 335    97  28.70  26.10  16.20  6.446  6.446  4.001  2.445  0.000  258.6   81.1  177.5    0.0
 2003 336    98  22.60  25.70  13.20  4.928  4.928  3.375  1.554  0.000  263.5   84.5  179.0    0.0
 2003 337    99  24.60  29.00  14.50  5.628  5.628  3.568  2.060  0.000  269.1   88.0  181.1    0.0
 2003 338   100  14.90  27.80  16.90  3.422  3.422  2.188  1.235  0.000  272.6   90.2  182.3    0.0
 2003 339   101  31.10  24.80  13.30  6.697  6.697  4.312  2.386  0.000  279.3   94.5  184.7    0.0
 2003 340   102  31.10  25.40   9.20  6.523  6.523  4.202  2.321  0.000  285.8   98.7  187.0    0.0
 2003 341   103  19.60  27.10  13.30  4.339  4.339  3.388  0.951  0.000  290.1  102.1  188.0    0.0
 2003 342   104  13.60  24.00  12.80  2.888  2.888  1.858  1.030  0.000  293.0  104.0  189.0    0.0
 2003 343   105  30.90  22.10  11.20  6.321  6.321  4.071  2.250  0.000  299.3  108.1  191.3    0.0
 2003 344   106  29.80  27.70   9.90  6.467  6.467  4.166  2.300  0.000  305.8  112.2  193.6    0.0
 2003 345   107  19.30  26.80  11.80  4.207  4.207  2.706  1.501  0.000  310.0  114.9  195.1    0.0
 2003 346   108  28.20  23.90   9.70  5.828  5.828  3.755  2.073  0.000  315.8  118.7  197.1    0.0
 2003 347   109  20.80  24.60  13.90  4.490  4.490  3.480  1.010  0.000  320.3  122.2  198.2    0.0
 2003 348   110  26.60  27.50  15.70  6.029  6.029  3.881  2.148  0.000  326.4  126.1  200.3    0.0
 2003 349   111  10.10  24.00  14.80  2.180  2.180  1.406  0.774  0.000  328.5  127.5  201.1    0.0
 2003 350   112  29.90  21.20  10.80  6.026  6.026  3.878  2.148  0.000  334.6  131.3  203.2    0.0
 2003 351   113  31.30  24.10  10.10  6.508  6.508  4.184  2.325  0.000  341.1  135.5  205.5    0.0
 2003 352   114  31.90  26.80  11.10  6.916  6.916  5.130  1.786  0.000  348.0  140.7  207.3    0.0
 2003 353   115  20.60  29.20  16.30  4.784  4.784  3.071  1.713  0.000  352.8  143.7  209.0    0.0
 2003 354   116  11.20  25.20  17.60  2.509  2.509  1.608  0.900  0.000  355.3  145.3  209.9    0.0
 2003 355   117  27.80  29.90  17.90  6.587  6.587  4.210  2.377  0.000  361.9  149.5  212.3    0.0
 2003 356   118  16.00  23.70  12.60  3.383  3.383  2.158  1.225  0.000  365.2  151.7  213.5    0.0
 2003 357   119  30.10  24.00  10.70  6.289  6.289  3.999  2.290  0.000  371.5  155.7  215.8    0.0
 2003 358   120  22.90  25.80  12.90  4.982  4.982  3.847  1.135  0.000  376.5  159.5  217.0    0.0
 2003 359   121  31.40  29.50  17.10  7.370  7.370  4.750  2.620  0.000  383.9  164.3  219.6    0.0
 2003 360   122  26.80  29.60  16.00  6.247  6.247  4.840  1.408  0.000  390.1  169.1  221.0    0.0
 2003 361   123   9.10  26.70  18.10  2.086  2.086  1.311  0.775  0.000  392.2  170.4  221.8    0.0
 2003 362   124  18.20  22.70  15.50  3.899  3.899  2.441  1.458  0.000  396.1  172.9  223.2    0.0
 2003 363   125  29.60  24.00   9.80  6.149  6.149  3.834  2.315  0.000  402.3  176.7  225.5    0.0
 2003 364   126  27.90  28.40  11.30  6.194  6.194  4.207  1.987  0.000  408.5  180.9  227.5    0.0
 2003 365   127  28.90  22.90  13.80  6.126  6.126  3.795  2.332  0.000  414.6  184.7  229.9    0.0
 2004 001   128  30.10  27.40   8.70  6.470  6.470  4.813  1.657  0.000  421.1  189.5  231.5    0.0
 2004 002   129  31.60  27.40  10.40  6.889  6.552  5.356  1.196  0.000  427.6  194.9  232.7    0.0
 2004 003   130  31.60  29.80  13.70  7.275  6.626  5.640  0.986  0.000  434.2  200.5  233.7    0.0
 2004 004   131  23.10  30.90  16.90  5.517  5.123  4.265  0.858  0.000  439.4  204.8  234.6    0.0
 2004 005   132  25.00  32.50  20.20  6.224  5.563  4.792  0.770  0.000  444.9  209.6  235.3    0.0
 2004 006   133  27.90  33.70  18.40  6.950  6.950  4.200  2.750  0.000  451.9  213.8  238.1    0.0
 2004 007   134  19.80  32.80  18.80  4.901  4.901  2.946  1.955  0.000  456.8  216.7  240.0    0.0
 2004 008   135  29.20  30.90  19.90  7.142  7.142  4.270  2.872  0.000  463.9  221.0  242.9    0.0
 2004 009   136  26.60  31.10  20.40  6.547  6.547  4.485  2.062  0.000  470.5  225.5  245.0    0.0
 2004 010   137  23.40  30.90  20.30  5.745  5.745  3.397  2.348  0.000  476.2  228.9  247.3    0.0
 2004 011   138  28.50  26.90  20.10  6.690  6.544  5.014  1.531  0.000  482.7  233.9  248.9    0.0
 2004 012   139  19.50  27.30  18.20  4.535  4.529  3.382  1.147  0.000  487.3  237.3  250.0    0.0
 2004 013   140  23.90  27.70  17.00  5.536  5.067  4.109  0.958  0.000  492.3  241.4  251.0    0.0
 2004 014   141  29.50  29.20  17.30  6.969  6.969  4.026  2.943  0.000  499.3  245.4  253.9    0.0
 2004 015   142  22.60  26.70  15.90  5.136  5.136  2.949  2.187  0.000  504.5  248.4  256.1    0.0
 2004 016   143  28.70  27.00  13.40  6.422  6.422  4.420  2.002  0.000  510.9  252.8  258.1    0.0
 2004 017   144  13.50  28.50  15.90  3.136  3.136  1.779  1.357  0.000  514.0  254.6  259.4    0.0
 2004 018   145  12.80  27.30  18.60  2.996  2.996  1.689  1.307  0.000  517.0  256.3  260.8    0.0
 2004 019   146  14.30  23.60  18.40  3.203  3.203  1.794  1.409  0.000  520.2  258.0  262.2    0.0
 2004 020   147  17.30  28.50  17.90  4.088  4.088  2.274  1.814  0.000  524.3  260.3  264.0    0.0
 2004 021   148  26.70  29.10  18.70  6.394  5.851  4.541  1.310  0.000  530.1  264.9  265.3    0.0
 2004 022   149  26.10  30.00  19.30  6.345  6.345  3.475  2.870  0.000  536.5  268.3  268.2    0.0
 2004 023   150  24.20  29.10  19.10  5.821  5.821  3.163  2.657  0.000  542.3  271.5  270.8    0.0
 2004 024   151  26.70  30.50  18.40  6.493  6.493  4.509  1.984  0.000  548.8  276.0  272.8    0.0
 2004 025   152  28.30  29.80  15.70  6.698  6.698  4.397  2.301  0.000  555.5  280.4  275.1    0.0
 2004 026   153  29.30  32.00  13.90  7.018  6.178  4.815  1.363  0.000  561.7  285.2  276.5    0.0
 2004 027   154  29.80  30.60  14.60  7.069  6.389  4.816  1.572  0.000  568.1  290.0  278.0    0.0
 2004 028   155  16.10  29.70  17.60  3.869  3.869  2.024  1.845  0.000  571.9  292.1  279.9    0.0
 2004 029   156  29.70  33.20  19.20  7.505  7.505  3.898  3.608  0.000  579.4  296.0  283.5    0.0
 2004 030   157  29.20  36.00  18.60  7.916  7.804  5.284  2.521  0.000  587.3  301.2  286.0    0.0
 2004 031   158  17.00  34.60  20.70  4.411  4.411  2.257  2.154  0.000  591.7  303.5  288.2    0.0
 2004 032   159  25.40  30.20  20.90  6.305  6.305  3.202  3.103  0.000  598.0  306.7  291.3    0.0
 2004 033   160  23.70  29.00  18.20  5.696  5.696  2.872  2.824  0.000  603.7  309.6  294.1    0.0
 2004 034   161   8.50  22.90  19.90  1.954  1.954  0.856  1.098  0.000  605.6  310.4  295.2    0.0
 2004 035   162  22.10  30.30  19.40  5.573  5.573  2.289  3.284  0.000  611.2  312.7  298.5    0.0
 2004 036   163  28.70  27.20  19.20  7.061  6.411  2.910  3.502  0.000  617.6  315.6  302.0    0.0
 2004 037   164  29.30  27.10  15.50  7.071  4.526  2.435  2.091  0.000  622.1  318.1  304.1    0.0
 2004 038   165  25.90  27.70  14.90  6.320  3.124  1.803  1.321  0.000  625.3  319.9  305.4    0.0
 2004 039   166  29.30  28.30  16.10  7.322  2.769  1.717  1.052  0.000  628.0  321.6  306.4    0.0
 2004 040   167  26.30  29.30  15.70  6.670  2.179  1.278  0.901  0.000  630.2  322.9  307.3    0.0
 2004 041   168  27.90  30.10  17.20  7.258  1.932  1.132  0.801  0.000  632.1  324.0  308.1    0.0
 2004 042   169  28.10  30.50  16.60  7.342  1.658  0.930  0.728  0.000  633.8  324.9  308.9    0.0
 2004 043   170  25.20  33.20  18.90  6.919  1.382  0.710  0.672  0.000  635.2  325.6  309.5    0.0
 2004 044   171   8.20  23.40  20.10  2.042  2.042  0.109  1.933  0.000  637.2  325.7  311.5    0.0

*DSSAT Cropping System Model Ver. 4.0.2.000               Aug 29, 2016; 09:16:37

*RUN   5        : UYSB                    
 MODEL          : CRGRO040 - Soybean         
 EXPERIMENT     : UYSB0405 SB    late to create DSS                             
 TREATMENT  1   : UYSB                    

@YEAR DOY   DAS   SRAA   TMXA   TMNA   EOAA   ETAA   EPAA   ESAA   EFAD   ETAC   EPAC   ESAC   EFAC
 2004 238     0  12.70  19.00   4.00  2.632  2.632  0.000  2.632  0.000    2.6    0.0    2.6    0.0
 2004 239     1  17.00  18.00   4.00  3.473  3.385  0.000  3.385  0.000    6.0    0.0    6.0    0.0
 2004 240     2  14.90  20.60   3.20  3.135  2.856  0.000  2.856  0.000    8.9    0.0    8.9    0.0
 2004 241     3  15.90  21.80   3.30  3.405  0.150  0.000  0.150  0.000    9.0    0.0    9.0    0.0
 2004 242     4  18.00  24.70   6.30  4.116  4.116  0.000  4.116  0.000   13.1    0.0   13.1    0.0
 2004 243     5  18.40  22.60   8.60  4.177  3.200  0.000  3.200  0.000   16.3    0.0   16.3    0.0
 2004 244     6  19.00  26.00   8.90  4.516  2.329  0.000  2.329  0.000   18.7    0.0   18.7    0.0
 2004 245     7  18.90  29.00  10.80  4.731  2.400  0.000  2.400  0.000   21.1    0.0   21.1    0.0
 2004 246     8   5.70  17.60  14.90  1.280  1.280  0.000  1.280  0.000   22.3    0.0   22.3    0.0
 2004 247     9   9.20  20.40  13.50  2.118  1.481  0.000  1.481  0.000   23.8    0.0   23.8    0.0
 2004 248    10  17.50  26.90  13.70  4.372  2.673  0.000  2.673  0.000   26.5    0.0   26.5    0.0
 2004 249    11  18.00  30.90  18.30  4.873  1.413  0.000  1.413  0.000   27.9    0.0   27.9    0.0
 2004 250    12  17.90  33.60  18.90  5.007  1.116  0.020  1.096  0.000   29.0    0.0   29.0    0.0
 2004 251    13   9.20  23.00  10.30  2.129  2.129  0.006  2.122  0.000   31.2    0.0   31.1    0.0
 2004 252    14   5.90  10.10   8.10  1.114  1.114  0.004  1.111  0.000   32.3    0.0   32.2    0.0
 2004 253    15   5.90  12.40   9.50  1.171  1.171  0.004  1.167  0.000   33.4    0.0   33.4    0.0
 2004 254    16   7.30  14.30   7.90  1.466  1.466  0.005  1.462  0.000   34.9    0.0   34.9    0.0
 2004 255    17  17.50  15.10   5.60  3.477  3.447  0.020  3.428  0.000   38.4    0.1   38.3    0.0
 2004 256    18  20.60  15.10   1.90  3.943  3.467  0.023  3.444  0.000   41.8    0.1   41.7    0.0
 2004 257    19   6.80  17.00   7.80  1.419  1.419  0.005  1.414  0.000   43.2    0.1   43.2    0.0
 2004 258    20  17.70  20.20   8.80  3.896  1.143  0.024  1.119  0.000   44.4    0.1   44.3    0.0
 2004 259    21  19.60  17.50   4.60  3.995  0.967  0.026  0.942  0.000   45.4    0.1   45.2    0.0
 2004 260    22  21.40  17.80   2.20  4.279  0.857  0.028  0.829  0.000   46.2    0.2   46.0    0.0
 2004 261    23  21.50  21.20   2.50  4.528  0.780  0.031  0.749  0.000   47.0    0.2   46.8    0.0
 2004 262    24  19.50  27.50  10.30  4.770  0.722  0.033  0.688  0.000   47.7    0.2   47.5    0.0
 2004 263    25   6.40  25.60  11.80  1.548  1.548  0.007  1.541  0.000   49.3    0.2   49.0    0.0
 2004 264    26   7.30  14.60  10.00  1.503  1.503  0.007  1.495  0.000   50.8    0.2   50.5    0.0
 2004 265    27   6.50  17.00  11.60  1.405  1.405  0.007  1.397  0.000   52.2    0.2   51.9    0.0
 2004 266    28  21.50  19.80  10.10  4.760  3.012  0.041  2.971  0.000   55.2    0.3   54.9    0.0
 2004 267    29  22.80  21.30   4.70  4.906  1.785  0.044  1.742  0.000   57.0    0.3   56.6    0.0
 2004 268    30  22.70  24.30   4.10  5.059  1.274  0.049  1.225  0.000   58.2    0.4   57.9    0.0
 2004 269    31  22.50  24.70   8.50  5.235  1.058  0.056  1.002  0.000   59.3    0.4   58.9    0.0
 2004 270    32  19.90  25.60   4.40  4.521  0.923  0.054  0.869  0.000   60.2    0.5   59.7    0.0
 2004 271    33   7.20  23.00  13.00  1.702  0.800  0.022  0.778  0.000   61.0    0.5   60.5    0.0
 2004 272    34   7.20  21.90  13.00  1.678  0.735  0.025  0.711  0.000   61.8    0.5   61.2    0.0
 2004 273    35  24.30  17.00   7.80  5.063  0.740  0.082  0.658  0.000   62.5    0.6   61.9    0.0
 2004 274    36  12.40  16.40   3.20  2.449  0.658  0.041  0.616  0.000   63.2    0.7   62.5    0.0
 2004 275    37  24.10  24.30   2.80  5.303  0.673  0.092  0.581  0.000   63.8    0.8   63.1    0.0
 2004 276    38  23.00  23.20  10.30  5.325  0.650  0.098  0.552  0.000   64.5    0.9   63.6    0.0
 2004 277    39  11.40  15.50   9.10  2.352  0.574  0.048  0.526  0.000   65.1    0.9   64.1    0.0
 2004 278    40  18.40  18.70   4.00  3.785  0.586  0.082  0.504  0.000   65.6    1.0   64.7    0.0
 2004 279    41  22.00  20.20   8.80  4.830  0.594  0.110  0.484  0.000   66.2    1.1   65.1    0.0
 2004 280    42  24.70  20.00   4.70  5.208  0.593  0.127  0.467  0.000   66.8    1.2   65.6    0.0
 2004 281    43  25.40  23.00   7.20  5.704  0.597  0.146  0.451  0.000   67.4    1.4   66.1    0.0
 2004 282    44  18.80  25.00   8.00  4.362  0.556  0.119  0.437  0.000   68.0    1.5   66.5    0.0
 2004 283    45  22.00  24.50  13.60  5.312  0.580  0.156  0.424  0.000   68.6    1.6   66.9    0.0
 2004 284    46  19.70  21.70  11.80  4.523  0.557  0.145  0.412  0.000   69.1    1.8   67.3    0.0
 2004 285    47  23.80  23.20   7.50  5.366  0.588  0.188  0.401  0.000   69.7    2.0   67.7    0.0
 2004 286    48   7.40  16.90  12.60  1.604  1.604  0.038  1.566  0.000   71.3    2.0   69.3    0.0
 2004 287    49  21.50  19.60   7.80  4.628  1.009  0.188  0.821  0.000   72.3    2.2   70.1    0.0
 2004 288    50  25.70  22.00   5.90  5.616  0.985  0.241  0.743  0.000   73.3    2.4   70.9    0.0
 2004 289    51  22.20  28.00  10.60  5.446  5.446  0.156  5.290  0.000   78.7    2.6   76.1    0.0
 2004 290    52  10.40  22.20  15.70  2.476  2.476  0.078  2.398  0.000   81.2    2.7   78.5    0.0
 2004 291    53  26.60  25.20  11.10  6.324  5.448  0.343  5.105  0.000   86.7    3.0   83.7    0.0
 2004 292    54  18.00  22.10  11.20  4.116  2.547  0.241  2.306  0.000   89.2    3.3   86.0    0.0
 2004 293    55  25.60  21.00   7.40  5.578  1.716  0.352  1.364  0.000   90.9    3.6   87.3    0.0
 2004 294    56  25.50  20.80   5.40  5.438  1.434  0.362  1.073  0.000   92.4    4.0   88.4    0.0
 2004 295    57  26.90  24.60   7.50  6.144  1.340  0.426  0.914  0.000   93.7    4.4   89.3    0.0
 2004 296    58  27.00  28.60  12.20  6.728  1.305  0.495  0.810  0.000   95.0    4.9   90.1    0.0
 2004 297    59  14.30  19.50  13.40  3.213  3.213  0.164  3.048  0.000   98.2    5.1   93.2    0.0
 2004 298    60  23.10  19.40  10.20  5.035  4.463  0.424  4.038  0.000  102.7    5.5   97.2    0.0
 2004 299    61  24.20  22.10   9.20  5.416  3.054  0.476  2.578  0.000  105.7    6.0   99.8    0.0
 2004 300    62  18.40  23.40  10.40  4.226  2.805  0.405  2.400  0.000  108.5    6.4  102.2    0.0
 2004 301    63  27.40  18.90   3.60  5.562  2.177  0.590  1.587  0.000  110.7    7.0  103.8    0.0
 2004 302    64  26.80  25.70   5.10  6.045  1.841  0.671  1.170  0.000  112.6    7.6  104.9    0.0
 2004 303    65  23.60  30.00  11.50  5.903  1.691  0.720  0.971  0.000  114.3    8.3  105.9    0.0
 2004 304    66   8.80  20.10  15.10  2.004  2.004  0.184  1.820  0.000  116.3    8.5  107.7    0.0
 2004 305    67  21.30  24.40  13.50  5.041  5.041  0.649  4.392  0.000  121.3    9.2  112.1    0.0
 2004 306    68  27.90  27.00  12.10  6.719  4.441  1.146  3.295  0.000  125.7   10.3  115.4    0.0
 2004 307    69  27.50  30.20  10.70  6.781  6.781  0.889  5.891  0.000  132.5   11.2  121.3    0.0
 2004 308    70   8.30  22.40  16.30  1.943  1.943  0.290  1.653  0.000  134.5   11.5  123.0    0.0
 2004 309    71   8.30  22.30  16.00  1.929  1.929  0.321  1.608  0.000  136.4   11.8  124.6    0.0
 2004 310    72  10.30  18.40   8.60  2.127  2.127  0.393  1.734  0.000  138.5   12.2  126.3    0.0
 2004 311    73  28.20  18.40   5.70  5.659  5.659  1.213  4.446  0.000  144.2   13.4  130.7    0.0
 2004 312    74  28.90  21.30   5.60  6.024  5.011  1.686  3.325  0.000  149.2   15.1  134.1    0.0
 2004 313    75  19.20  25.10  10.50  4.378  4.378  0.938  3.439  0.000  153.6   16.1  137.5    0.0
 2004 314    76   8.80  19.50  16.20  1.954  1.954  0.463  1.492  0.000  155.5   16.5  139.0    0.0
 2004 315    77   8.50  22.20  14.20  1.914  1.914  0.491  1.423  0.000  157.4   17.0  140.4    0.0
 2004 316    78  16.30  19.10  13.70  3.501  3.501  0.978  2.523  0.000  160.9   18.0  143.0    0.0
 2004 317    79  18.40  20.20  12.60  3.959  3.959  1.185  2.774  0.000  164.9   19.2  145.7    0.0
 2004 318    80  20.00  21.10  10.20  4.250  3.617  1.729  1.887  0.000  168.5   20.9  147.6    0.0
 2004 319    81  15.60  23.10  12.00  3.444  3.444  1.178  2.266  0.000  172.0   22.1  149.9    0.0
 2004 320    82  24.10  25.80  15.30  5.626  5.626  2.087  3.539  0.000  177.6   24.2  153.4    0.0
 2004 321    83  18.80  23.60  16.10  4.278  4.278  1.790  2.488  0.000  181.9   26.0  155.9    0.0
 2004 322    84  28.20  23.60  11.50  6.149  6.149  2.677  3.472  0.000  188.0   28.6  159.4    0.0
 2004 323    85  29.40  22.20  10.30  6.212  4.846  3.396  1.450  0.000  192.9   32.0  160.8    0.0
 2004 324    86  25.10  20.90   9.20  5.149  4.026  2.914  1.112  0.000  196.9   34.9  161.9    0.0
 2004 325    87  25.00  21.90   9.20  5.185  3.950  3.012  0.938  0.000  200.8   38.0  162.9    0.0
 2004 326    88  29.20  24.50   9.20  6.247  4.558  3.732  0.826  0.000  205.4   41.7  163.7    0.0
 2004 327    89  29.80  27.20  12.30  6.740  4.905  4.158  0.747  0.000  210.3   45.8  164.5    0.0
 2004 328    90  28.30  32.60  13.80  6.865  5.089  4.402  0.687  0.000  215.4   50.2  165.1    0.0
 2004 329    91   8.80  25.60  19.70  2.055  2.007  1.368  0.639  0.000  217.4   51.6  165.8    0.0
 2004 330    92  13.90  24.30  17.60  3.134  2.755  2.154  0.601  0.000  220.1   53.8  166.4    0.0
 2004 331    93  22.10  26.70  16.40  5.062  4.156  3.588  0.568  0.000  224.3   57.4  166.9    0.0
 2004 332    94  17.50  26.10  15.80  3.950  3.420  2.880  0.540  0.000  227.7   60.2  167.5    0.0
 2004 333    95  21.10  26.80  16.10  4.800  4.101  3.584  0.516  0.000  231.8   63.8  168.0    0.0
 2004 334    96  29.30  26.80  14.30  6.556  5.498  5.003  0.495  0.000  237.3   68.8  168.5    0.0
 2004 335    97  29.40  25.70  13.30  6.428  6.428  3.949  2.479  0.000  243.8   72.8  171.0    0.0
 2004 336    98  29.50  29.10  13.20  6.698  6.698  4.193  2.505  0.000  250.4   77.0  173.5    0.0
 2004 337    99  29.70  33.50  16.60  7.253  7.253  5.267  1.986  0.000  257.7   82.2  175.5    0.0
 2004 338   100  25.10  32.50  20.30  6.218  6.218  4.021  2.197  0.000  263.9   86.3  177.7    0.0
 2004 339   101  19.40  28.60  18.20  4.529  4.529  2.978  1.551  0.000  268.4   89.2  179.2    0.0
 2004 340   102  27.70  31.00  13.40  6.401  6.401  4.267  2.134  0.000  274.8   93.5  181.3    0.0
 2004 341   103  20.60  28.00  17.30  4.734  4.734  3.193  1.541  0.000  279.6   96.7  182.9    0.0
 2004 342   104   9.90  25.00  19.80  2.239  2.239  1.525  0.713  0.000  281.8   98.2  183.6    0.0
 2004 343   105  18.40  27.90  19.10  4.275  4.275  2.931  1.344  0.000  286.1  101.2  184.9    0.0
 2004 344   106  26.80  25.30  15.50  5.874  5.874  4.050  1.824  0.000  292.0  105.2  186.8    0.0
 2004 345   107  29.90  25.60  13.60  6.478  6.478  4.470  2.008  0.000  298.4  109.7  188.8    0.0
 2004 346   108  31.10  24.20  12.40  6.559  6.559  5.294  1.266  0.000  305.0  115.0  190.0    0.0
 2004 347   109  31.30  27.80  13.10  6.934  6.934  4.780  2.154  0.000  311.9  119.7  192.2    0.0
 2004 348   110  30.10  30.40  12.00  6.814  6.814  4.702  2.113  0.000  318.8  124.4  194.3    0.0
 2004 349   111  26.80  30.00  16.40  6.244  6.244  4.390  1.854  0.000  325.0  128.8  196.2    0.0
 2004 350   112  21.10  32.80  16.00  5.055  5.055  3.497  1.557  0.000  330.1  132.3  197.7    0.0
 2004 351   113  25.20  27.00  16.20  5.664  5.664  3.925  1.738  0.000  335.7  136.3  199.5    0.0
[...]
 2013 361   123  20.10  36.30  22.00  5.624  5.624  3.326  2.298  0.000  436.4  211.3  225.1    0.0
 2013 362   124  23.00  34.00  20.20  5.865  5.865  3.262  2.603  0.000  442.3  214.6  227.7    0.0
 2013 363   125  19.40  36.10  23.00  5.412  5.412  2.993  2.419  0.000  447.7  217.6  230.1    0.0
 2013 364   126  29.60  38.60  22.00  9.325  9.325  5.129  4.196  0.000  457.0  222.7  234.3    0.0
 2013 365   127   9.10  29.50  19.00  2.195  2.195  1.202  0.994  0.000  459.2  223.9  235.3    0.0
 2014 001   128  26.90  35.40  20.00  7.091  7.091  4.827  2.264  0.000  466.3  228.7  237.6    0.0
 2014 002   129  23.20  33.60  21.60  5.965  5.965  3.629  2.336  0.000  472.3  232.4  239.9    0.0
 2014 003   130  26.80  26.90  16.80  6.186  5.655  4.286  1.369  0.000  477.9  236.6  241.3    0.0
 2014 004   131  30.40  30.60  11.30  7.024  7.024  3.748  3.277  0.000  485.0  240.4  244.6    0.0
 2014 005   132  30.60  34.00  14.00  7.500  7.500  4.297  3.203  0.000  492.5  244.7  247.8    0.0
 2014 006   133  30.10  35.20  19.40  7.839  7.839  4.786  3.053  0.000  500.3  249.5  250.8    0.0
 2014 007   134  25.30  36.20  18.80  6.933  6.933  3.628  3.305  0.000  507.2  253.1  254.1    0.0
 2014 008   135  24.10  30.20  19.00  5.887  5.887  3.114  2.774  0.000  513.1  256.2  256.9    0.0
 2014 009   136  27.00  33.00  20.60  6.880  6.805  4.601  2.205  0.000  519.9  260.8  259.1    0.0
 2014 010   137  12.10  26.00  19.90  2.843  2.843  1.458  1.385  0.000  522.8  262.3  260.5    0.0
 2014 011   138  11.10  25.90  19.00  2.589  2.589  1.318  1.270  0.000  525.4  263.6  261.8    0.0
 2014 012   139  15.50  25.50  13.00  3.434  3.434  1.936  1.498  0.000  528.8  265.5  263.3    0.0
 2014 013   140  17.20  27.00  17.90  4.033  3.763  2.630  1.134  0.000  532.6  268.2  264.4    0.0
 2014 014   141  16.20  28.00  21.20  3.940  3.940  1.967  1.973  0.000  536.5  270.1  266.4    0.0
 2014 015   142  30.30  30.00  17.90  7.358  7.358  3.649  3.710  0.000  543.9  273.8  270.1    0.0
 2014 016   143  30.20  33.10  17.90  7.590  7.293  4.855  2.438  0.000  551.2  278.6  272.5    0.0
 2014 017   144  30.10  34.00  19.90  7.751  6.899  4.927  1.972  0.000  558.1  283.6  274.5    0.0
 2014 018   145  30.20  36.20  23.00  8.572  6.708  5.415  1.293  0.000  564.8  289.0  275.8    0.0
 2014 019   146  24.40  36.00  22.90  6.851  6.851  3.311  3.540  0.000  571.6  292.3  279.3    0.0
 2014 020   147  24.70  36.00  23.00  6.944  6.944  3.336  3.608  0.000  578.6  295.6  282.9    0.0
 2014 021   148  26.50  35.00  22.80  7.049  7.049  3.367  3.682  0.000  585.6  299.0  286.6    0.0
 2014 022   149  22.70  33.00  21.00  5.845  5.845  2.776  3.070  0.000  591.5  301.8  289.7    0.0
 2014 023   150  29.30  36.00  25.50  8.388  8.388  4.560  3.828  0.000  599.8  306.3  293.5    0.0
 2014 024   151  11.10  30.00  17.80  2.740  2.740  1.123  1.617  0.000  602.6  307.4  295.1    0.0
 2014 025   152   8.90  23.00  14.20  1.991  1.991  0.736  1.255  0.000  604.6  308.2  296.4    0.0
 2014 026   153  28.10  23.30  16.00  6.472  6.455  2.464  3.992  0.000  611.0  310.6  300.4    0.0
 2014 027   154   9.70  28.00  20.60  2.468  2.468  0.579  1.890  0.000  613.5  311.2  302.3    0.0
 2014 028   155  23.70  32.00  21.00  6.368  6.368  1.191  5.177  0.000  619.9  312.4  307.5    0.0
 2014 029   156  10.20  24.90  21.00  2.552  2.552  0.380  2.172  0.000  622.4  312.8  309.6    0.0
 2014 030   157   9.60  26.00  21.50  2.456  2.456  0.292  2.163  0.000  624.9  313.1  311.8    0.0
 2014 031   158  12.00  24.80  21.00  3.031  3.031  0.289  2.743  0.000  627.9  313.4  314.5    0.0
 2014 032   159  16.50  26.30  20.10  4.228  4.228  0.322  3.906  0.000  632.1  313.7  318.4    0.0
 2014 033   160  23.70  29.80  20.00  6.330  6.330  0.386  5.944  0.000  638.5  314.1  324.4    0.0
 2014 034   161  15.30  26.50  19.40  3.932  3.932  0.192  3.740  0.000  642.4  314.3  328.1    0.0

*DSSAT Cropping System Model Ver. 4.0.2.000               Aug 29, 2016; 09:16:37

*RUN  15        : UYSB                    
 MODEL          : CRGRO040 - Soybean         
 EXPERIMENT     : UYSB0405 SB    late to create DSS                             
 TREATMENT  1   : UYSB                    

@YEAR DOY   DAS   SRAA   TMXA   TMNA   EOAA   ETAA   EPAA   ESAA   EFAD   ETAC   EPAC   ESAC   EFAC
 2014 238     0  10.60  12.00   4.90  1.996  1.996  0.000  1.996  0.000    2.0    0.0    2.0    0.0
 2014 239     1  16.10  14.00   2.60  3.054  2.791  0.000  2.791  0.000    4.8    0.0    4.8    0.0
 2014 240     2  16.30  14.80  -1.00  3.015  3.015  0.000  3.015  0.000    7.8    0.0    7.8    0.0
 2014 241     3  17.80  18.20   2.10  3.580  1.197  0.000  1.197  0.000    9.0    0.0    9.0    0.0
 2014 242     4  15.90  23.00   5.00  3.515  3.515  0.000  3.515  0.000   12.5    0.0   12.5    0.0
 2014 243     5  16.60  22.80  10.80  3.850  3.304  0.000  3.304  0.000   15.8    0.0   15.8    0.0
 2014 244     6  18.10  22.40   7.00  4.041  2.775  0.000  2.775  0.000   18.6    0.0   18.6    0.0
 2014 245     7   7.10  16.00  12.20  1.523  1.523  0.000  1.523  0.000   20.1    0.0   20.1    0.0
 2014 246     8   6.40  20.00  13.80  1.469  1.469  0.000  1.469  0.000   21.6    0.0   21.6    0.0
 2014 247     9   9.20  20.00  12.60  2.090  2.090  0.000  2.090  0.000   23.7    0.0   23.7    0.0
 2014 248    10   6.50  19.80  14.50  1.497  1.497  0.000  1.497  0.000   25.2    0.0   25.2    0.0
 2014 249    11   7.70  21.00  10.00  1.733  1.733  0.000  1.733  0.000   26.9    0.0   26.9    0.0
 2014 250    12  19.90  20.00   6.00  4.262  4.262  0.000  4.262  0.000   31.2    0.0   31.2    0.0
 2014 251    13  17.40  24.00   8.20  4.008  2.407  0.000  2.407  0.000   33.6    0.0   33.6    0.0
 2014 252    14  10.60  30.00   9.00  2.645  2.645  0.007  2.639  0.000   36.2    0.0   36.2    0.0
 2014 253    15   6.10  12.00   6.30  1.165  1.165  0.003  1.162  0.000   37.4    0.0   37.4    0.0
 2014 254    16  19.50  18.00   5.10  4.024  3.306  0.019  3.287  0.000   40.7    0.0   40.7    0.0
 2014 255    17   6.00  12.90   7.30  1.173  1.173  0.003  1.170  0.000   41.9    0.0   41.8    0.0
 2014 256    18   6.10  16.00  12.70  1.314  1.314  0.004  1.310  0.000   43.2    0.0   43.1    0.0
 2014 257    19   6.10  16.80  15.10  1.357  1.357  0.004  1.353  0.000   44.5    0.0   44.5    0.0
 2014 258    20  16.60  19.40  11.20  3.693  3.693  0.013  3.680  0.000   48.2    0.1   48.2    0.0
 2014 259    21  17.20  19.20   8.00  3.708  2.625  0.022  2.603  0.000   50.9    0.1   50.8    0.0
 2014 260    22  14.00  20.20   5.90  3.001  2.246  0.019  2.227  0.000   53.1    0.1   53.0    0.0
 2014 261    23   7.70  19.60  10.30  1.704  1.361  0.011  1.350  0.000   54.5    0.1   54.4    0.0
 2014 262    24  15.50  22.00  14.80  3.677  1.091  0.025  1.066  0.000   55.6    0.1   55.4    0.0
 2014 263    25  21.30  22.10  11.30  4.912  0.946  0.036  0.910  0.000   56.5    0.2   56.3    0.0
 2014 264    26  17.10  18.80   8.30  3.675  0.835  0.029  0.807  0.000   57.3    0.2   57.1    0.0
 2014 265    27  21.80  22.20   9.40  4.951  0.773  0.040  0.733  0.000   58.1    0.2   57.9    0.0
 2014 266    28  20.60  26.20   9.20  4.914  0.717  0.042  0.676  0.000   58.8    0.3   58.5    0.0
 2014 267    29  22.50  21.80  11.90  5.194  0.677  0.046  0.630  0.000   59.5    0.3   59.2    0.0
 2014 268    30  19.00  26.00   9.70  4.539  4.362  0.042  4.320  0.000   63.9    0.4   63.5    0.0
 2014 269    31  16.70  17.00  11.10  3.591  0.698  0.039  0.660  0.000   64.6    0.4   64.2    0.0
 2014 270    32  22.60  20.20   7.00  4.890  0.675  0.057  0.617  0.000   65.2    0.5   64.8    0.0
 2014 271    33  15.60  24.90  11.60  3.733  3.733  0.029  3.704  0.000   69.0    0.5   68.5    0.0
 2014 272    34  18.00  21.80  13.00  4.191  3.471  0.060  3.411  0.000   72.4    0.6   71.9    0.0
 2014 273    35   6.90  19.00  12.90  1.548  1.548  0.015  1.533  0.000   74.0    0.6   73.4    0.0
 2014 274    36  20.10  22.20  11.20  4.631  4.615  0.078  4.536  0.000   78.6    0.6   78.0    0.0
 2014 275    37  23.80  19.60   6.90  5.098  3.330  0.093  3.236  0.000   81.9    0.7   81.2    0.0
 2014 276    38   7.00  15.40  11.90  1.481  1.025  0.029  0.996  0.000   83.0    0.8   82.2    0.0
 2014 277    39   7.00  19.40  13.50  1.586  1.586  0.020  1.565  0.000   84.5    0.8   83.8    0.0
 2014 278    40   7.10  17.20  14.00  1.569  1.569  0.022  1.547  0.000   86.1    0.8   85.3    0.0
 2014 279    41  12.70  22.30  14.40  3.006  3.006  0.046  2.960  0.000   89.1    0.9   88.3    0.0
 2014 280    42  18.00  24.00  15.00  4.371  3.294  0.118  3.175  0.000   92.4    1.0   91.4    0.0
 2014 281    43  24.60  28.00  12.10  6.121  4.954  0.183  4.771  0.000   97.4    1.2   96.2    0.0
 2014 282    44  11.50  23.00  20.00  2.869  2.869  0.059  2.810  0.000  100.2    1.2   99.0    0.0
 2014 283    45   9.90  20.50  11.00  2.220  2.220  0.052  2.168  0.000  102.5    1.3  101.2    0.0
 2014 284    46  12.60  18.00  10.00  2.707  2.707  0.069  2.638  0.000  105.2    1.3  103.8    0.0
 2014 285    47   7.50  18.50  13.90  1.679  1.679  0.046  1.634  0.000  106.8    1.4  105.5    0.0
 2014 286    48  22.20  22.40  10.40  5.071  4.936  0.236  4.700  0.000  111.8    1.6  110.2    0.0
 2014 287    49  19.00  23.10   9.40  4.339  3.399  0.216  3.182  0.000  115.2    1.8  113.3    0.0
 2014 288    50  15.50  27.20  12.90  3.831  1.649  0.204  1.445  0.000  116.8    2.0  114.8    0.0
 2014 289    51  14.50  25.20  19.80  3.692  3.692  0.136  3.556  0.000  120.5    2.2  118.3    0.0
 2014 290    52   7.60  21.90  17.80  1.830  1.830  0.076  1.754  0.000  122.3    2.3  120.1    0.0
 2014 291    53   7.60  22.20  17.60  1.832  1.832  0.083  1.748  0.000  124.2    2.3  121.8    0.0
 2014 292    54   9.90  21.10  12.80  2.260  2.260  0.112  2.148  0.000  126.4    2.4  124.0    0.0
 2014 293    55  26.10  23.00   9.20  5.915  4.690  0.486  4.204  0.000  131.1    2.9  128.2    0.0
 2014 294    56  25.90  25.00  10.80  6.098  2.508  0.527  1.982  0.000  133.6    3.5  130.2    0.0
 2014 295    57  27.40  28.20  11.80  6.751  1.945  0.650  1.295  0.000  135.6    4.1  131.5    0.0
 2014 296    58  26.00  29.40  12.70  6.530  1.755  0.716  1.039  0.000  137.3    4.8  132.5    0.0
 2014 297    59  21.00  26.90  15.40  5.219  1.546  0.653  0.893  0.000  138.9    5.5  133.4    0.0
 2014 298    60  19.80  26.00  16.30  4.890  1.499  0.704  0.795  0.000  140.4    6.2  134.2    0.0
 2014 299    61  26.60  29.20  17.20  6.841  1.855  1.132  0.724  0.000  142.2    7.3  134.9    0.0
 2014 300    62  27.10  32.20  18.00  7.220  2.043  1.374  0.669  0.000  144.3    8.7  135.6    0.0
 2014 301    63  26.20  34.60  21.80  7.321  2.224  1.599  0.625  0.000  146.5   10.3  136.2    0.0
 2014 302    64  10.00  26.40  18.00  2.475  2.475  0.438  2.037  0.000  149.0   10.7  138.3    0.0
 2014 303    65  13.30  25.40  18.50  3.252  3.252  0.656  2.596  0.000  152.2   11.4  140.8    0.0
 2014 304    66   8.10  20.80  16.40  1.834  1.834  0.421  1.412  0.000  154.1   11.8  142.3    0.0
 2014 305    67   8.10  19.90  15.90  1.800  1.800  0.446  1.354  0.000  155.9   12.2  143.6    0.0
 2014 306    68   8.20  18.10  15.10  1.764  1.764  0.466  1.297  0.000  157.6   12.7  144.9    0.0
 2014 307    69   8.20  21.00  17.10  1.857  1.857  0.516  1.341  0.000  159.5   13.2  146.3    0.0
 2014 308    70   8.30  20.60  12.00  1.786  1.786  0.533  1.253  0.000  161.3   13.8  147.5    0.0
 2014 309    71  28.00  23.00   9.10  6.049  6.049  2.190  3.858  0.000  167.3   16.0  151.4    0.0
 2014 310    72  28.70  26.20  12.60  6.626  5.830  2.753  3.076  0.000  173.1   18.7  154.4    0.0
 2014 311    73  22.40  28.20  17.30  5.471  3.851  2.409  1.441  0.000  177.0   21.1  155.9    0.0
 2014 312    74  22.60  28.20  15.00  5.402  3.636  2.528  1.109  0.000  180.6   23.6  157.0    0.0
 2014 313    75  28.70  31.00  14.90  7.051  4.406  3.471  0.936  0.000  185.0   27.1  157.9    0.0
 2014 314    76  28.90  31.80  17.90  7.297  4.589  3.765  0.825  0.000  189.6   30.9  158.8    0.0
 2014 315    77  26.60  27.20  19.60  6.439  6.439  2.685  3.755  0.000  196.1   33.6  162.5    0.0
 2014 316    78  14.80  24.20  16.10  3.355  2.774  1.891  0.883  0.000  198.8   35.5  163.4    0.0
 2014 317    79  14.20  22.20  12.20  3.034  2.550  1.761  0.788  0.000  201.4   37.2  164.2    0.0
 2014 318    80  24.50  25.00   9.00  5.271  3.832  3.113  0.719  0.000  205.2   40.3  164.9    0.0
 2014 319    81  29.10  28.50  11.80  6.673  4.679  4.014  0.665  0.000  209.9   44.3  165.6    0.0
 2014 320    82  29.50  31.00  13.90  7.062  4.966  4.344  0.621  0.000  214.9   48.7  166.2    0.0
 2014 321    83  28.80  28.20  14.70  6.704  4.802  4.216  0.585  0.000  219.7   52.9  166.8    0.0
 2014 322    84  29.70  30.80  16.60  7.210  5.180  4.625  0.555  0.000  224.9   57.5  167.3    0.0
 2014 323    85  28.30  32.40  18.00  7.052  7.052  3.540  3.512  0.000  231.9   61.1  170.8    0.0
 2014 324    86  26.10  28.00  18.20  6.193  6.193  3.386  2.808  0.000  238.1   64.5  173.6    0.0
 2014 325    87   8.70  22.20  15.40  1.883  1.883  0.978  0.905  0.000  240.0   65.4  174.5    0.0
 2014 326    88  18.30  21.40  12.80  3.834  3.834  2.006  1.829  0.000  243.8   67.4  176.4    0.0
 2014 327    89  30.30  26.50   9.00  6.555  6.555  3.439  3.116  0.000  250.4   70.9  179.5    0.0
 2014 328    90  25.80  32.00  13.80  6.179  6.179  3.261  2.918  0.000  256.6   74.1  182.4    0.0
 2014 329    91  15.20  25.40  17.90  3.482  3.482  1.846  1.636  0.000  260.0   76.0  184.0    0.0
 2014 330    92  21.00  26.20  16.90  4.815  4.782  3.315  1.468  0.000  264.8   79.3  185.5    0.0
 2014 331    93  29.70  27.40  13.80  6.741  6.741  4.222  2.520  0.000  271.6   83.5  188.0    0.0
 2014 332    94  29.60  28.00  13.00  6.726  6.013  4.617  1.396  0.000  277.6   88.1  189.4    0.0
 2014 333    95  29.60  32.30  16.10  7.231  6.039  4.951  1.088  0.000  283.6   93.1  190.5    0.0
 2014 334    96   8.90  25.90  20.10  2.086  2.086  1.103  0.982  0.000  285.7   94.2  191.5    0.0
 2014 335    97   9.00  20.00  17.40  1.924  1.924  1.015  0.909  0.000  287.6   95.2  192.4    0.0
 2014 336    98   9.00  19.90  17.10  1.918  1.918  1.008  0.910  0.000  289.5   96.2  193.3    0.0
 2014 337    99  29.90  26.40  14.30  6.745  6.745  3.529  3.216  0.000  296.3   99.7  196.5    0.0
 2014 338   100  30.90  28.40  12.20  7.023  7.023  4.255  2.769  0.000  303.3  104.0  199.3    0.0
 2014 339   101  31.30  30.00  13.50  7.324  7.324  4.606  2.718  0.000  310.6  108.6  202.0    0.0
 2014 340   102  30.30  31.20  17.10  7.385  6.353  4.936  1.417  0.000  317.0  113.5  203.4    0.0
 2014 341   103  27.40  33.90  18.60  6.953  5.726  4.628  1.098  0.000  322.7  118.2  204.5    0.0
 2014 342   104  20.60  30.00  21.40  5.117  4.323  3.394  0.929  0.000  327.0  121.6  205.5    0.0
 2014 343   105  23.20  31.00  21.40  5.827  5.827  2.970  2.858  0.000  332.9  124.5  208.3    0.0
 2014 344   106  15.70  26.40  20.00  3.712  3.712  1.883  1.829  0.000  336.6  126.4  210.2    0.0
 2014 345   107  26.30  25.20  16.50  5.971  5.971  3.673  2.299  0.000  342.5  130.1  212.5    0.0
 2014 346   108  13.00  26.20  18.00  3.023  3.023  1.520  1.503  0.000  345.6  131.6  214.0    0.0
 2014 347   109  18.80  29.20  22.20  4.666  4.666  2.860  1.806  0.000  350.2  134.5  215.8    0.0
 2014 348   110  30.70  26.90  21.90  7.416  6.041  4.796  1.246  0.000  356.3  139.3  217.0    0.0
 2014 349   111  28.50  26.80  18.90  6.727  5.930  4.330  1.600  0.000  362.2  143.6  218.6    0.0
 2014 350   112  10.00  23.60  18.40  2.266  2.266  1.119  1.148  0.000  364.5  144.7  219.8    0.0
 2014 351   113  20.70  27.40  18.80  4.920  4.920  2.418  2.502  0.000  369.4  147.1  222.3    0.0
 2014 352   114  22.50  29.40  19.30  5.491  5.491  2.867  2.624  0.000  374.9  150.0  224.9    0.0
 2014 353   115  25.10  30.10  17.50  6.095  6.095  2.965  3.130  0.000  381.0  153.0  228.0    0.0
 2014 354   116  24.00  29.90  18.40  5.856  5.856  2.835  3.022  0.000  386.8  155.8  231.0    0.0
 2014 355   117  16.60  23.30  17.80  3.739  3.739  1.801  1.938  0.000  390.6  157.6  233.0    0.0
 2014 356   118  28.40  24.00  13.20  6.218  6.218  3.859  2.359  0.000  396.8  161.5  235.3    0.0
 2014 357   119  30.30  23.80  14.90  6.714  6.583  4.162  2.421  0.000  403.4  165.6  237.7    0.0
 2014 358   120  30.80  27.00  15.70  7.138  5.785  4.403  1.382  0.000  409.2  170.0  239.1    0.0
 2014 359   121  15.70  29.00  17.50  3.776  3.776  1.783  1.994  0.000  412.9  171.8  241.1    0.0
 2014 360   122  11.00  26.10  21.30  2.636  2.636  1.238  1.399  0.000  415.6  173.0  242.5    0.0
 2014 361   123  24.70  28.50  20.30  6.038  6.038  2.818  3.220  0.000  421.6  175.9  245.7    0.0
 2014 362   124  12.70  28.30  24.30  3.191  3.191  1.612  1.579  0.000  424.8  177.5  247.3    0.0
 2014 363   125  25.50  31.00  23.20  6.547  6.547  3.240  3.307  0.000  431.3  180.7  250.6    0.0
 2014 364   126  14.40  28.50  22.40  3.581  3.577  2.129  1.448  0.000  434.9  182.8  252.1    0.0
 2014 365   127  29.10  31.00  20.00  7.313  5.429  4.317  1.112  0.000  440.3  187.2  253.2    0.0
 2015 001   128  15.10  29.30  19.90  3.725  3.725  1.679  2.045  0.000  444.1  188.8  255.2    0.0
 2015 002   129  29.60  23.50  11.50  6.390  6.390  2.860  3.529  0.000  450.5  191.7  258.8    0.0
 2015 003   130  30.40  27.00  13.50  6.965  6.411  4.028  2.384  0.000  456.9  195.7  261.1    0.0
 2015 004   131  31.00  29.90  15.50  7.464  6.210  4.287  1.923  0.000  463.1  200.0  263.1    0.0
 2015 005   132  28.00  29.50  15.50  6.715  5.110  3.830  1.280  0.000  468.2  203.8  264.4    0.0
 2015 006   133  28.00  31.60  22.30  7.224  7.224  3.150  4.074  0.000  475.4  207.0  268.4    0.0
 2015 007   134  22.00  22.60  19.60  5.033  5.033  2.179  2.854  0.000  480.5  209.2  271.3    0.0
 2015 008   135  17.60  27.60  21.40  4.326  4.326  1.860  2.466  0.000  484.8  211.0  273.7    0.0
 2015 009   136  14.30  29.00  25.00  3.665  3.563  2.031  1.532  0.000  488.3  213.1  275.3    0.0
 2015 010   137  19.50  30.90  19.50  4.907  4.907  2.157  2.750  0.000  493.2  215.2  278.0    0.0
 2015 011   138  11.20  24.50  23.00  2.696  2.696  1.135  1.560  0.000  495.9  216.4  279.6    0.0
 2015 012   139  28.50  31.50  24.00  7.460  7.460  3.402  4.058  0.000  503.4  219.8  283.6    0.0
 2015 013   140   9.70  28.90  21.40  2.426  2.426  1.008  1.417  0.000  505.8  220.8  285.1    0.0
 2015 014   141  15.50  26.40  21.40  3.772  3.772  1.558  2.214  0.000  509.6  222.3  287.3    0.0
 2015 015   142  16.80  27.40  22.50  4.170  4.170  1.748  2.422  0.000  513.8  224.1  289.7    0.0
 2015 016   143  21.50  26.70  21.50  5.259  5.259  2.147  3.112  0.000  519.0  226.2  292.8    0.0
 2015 017   144  28.00  29.00  23.90  7.152  5.309  3.755  1.554  0.000  524.3  230.0  294.4    0.0
 2015 018   145  24.60  28.00  22.00  6.134  6.134  2.476  3.658  0.000  530.5  232.5  298.0    0.0
 2015 019   146  23.30  32.20  18.20  5.986  5.890  2.656  3.235  0.000  536.4  235.1  301.3    0.0
 2015 020   147  18.40  26.40  20.00  4.540  4.412  1.692  2.720  0.000  540.8  236.8  304.0    0.0
 2015 021   148  29.70  25.80  18.40  7.257  3.669  2.251  1.418  0.000  544.4  239.1  305.4    0.0
 2015 022   149  29.70  26.40  15.00  7.175  2.935  1.837  1.098  0.000  547.4  240.9  306.5    0.0
 2015 023   150  26.40  27.90  19.00  6.737  2.343  1.414  0.929  0.000  549.7  242.3  307.4    0.0
 2015 024   151  26.90  28.90  18.50  6.956  2.010  1.190  0.820  0.000  551.7  243.5  308.2    0.0
 2015 025   152  23.80  29.20  18.30  6.196  1.603  0.861  0.743  0.000  553.3  244.4  309.0    0.0
 2015 026   153  28.10  31.40  23.10  7.786  1.558  0.875  0.683  0.000  554.9  245.2  309.7    0.0
 2015 027   154  26.90  33.60  22.20  7.603  1.328  0.691  0.637  0.000  556.2  245.9  310.3    0.0
 2015 028   155  11.70  28.10  22.00  3.122  3.122  0.146  2.976  0.000  559.3  246.1  313.3    0.0
 2015 029   156  27.90  25.00  17.30  6.950  5.635  0.411  5.224  0.000  565.0  246.5  318.5    0.0
