*SIMULATION OVERVIEW FILE

*DSSAT Cropping System Model Ver. 4.0.2.000               Aug 29, 2016; 09:16:37
                                                                                
*RUN   1        : UYSB                                                          
 MODEL          : CRGRO040 - SOYBEAN                                            
 EXPERIMENT     : UYSB0405 SN late to create DSS                                
 TREATMENT  1   : UYSB                                                          
                                                                                
 CROP           : SOYBEAN        CULTIVAR : GM 4 UY          ECOTYPE :SB0401    
 STARTING DATE  : AUG 25 2000                                                   
 PLANTING DATE  : AUG 28 2000    PLANTS/m2 :  7.0     ROW SPACING :  15.cm      
 WEATHER        : UYTA   2000                                                   
 SOIL           : UYSS0N2002     TEXTURE :       -  N20-02    SNIA CLAY RISS    
 SOIL INITIAL C : DEPTH:125cm EXTR. H2O:186.3mm  NO3: 74.8kg/ha  NH4: 23.9kg/ha 
 WATER BALANCE  : AUTOMATIC IRRIGATION - REFILL PROFILE                         
 IRRIGATION     : AUTOMATIC - PLANTING -> MATURITY [ SOIL DEPTH:30.00m 50.%]    
 NITROGEN BAL.  : SOIL-N, N-UPTAKE & DYNAMIC N-FIXATION SIMULATION              
 N-FERTILIZER   : NO N-FERTILIZER APPLIED                                       
 RESIDUE/MANURE : INITIAL :     0 kg/ha ;       0 kg/ha IN     0 APPLICATIONS   
 ENVIRONM. OPT. : DAYL=    0.00  SRAD=    0.00  TMAX=    0.00  TMIN=    0.00    
                  RAIN=    0.00  CO2 = R330.00  DEW =    0.00  WIND=    0.00    
 SIMULATION OPT : WATER   :Y  NITROGEN:Y  N-FIX:Y  PHOSPH :N  PESTS  :N         
                  PHOTO   :C  ET      :R  INFIL:S  HYDROL :R  SOM    :G         
 MANAGEMENT OPT : PLANTING:R  IRRIG   :A  FERT :N  RESIDUE:N  HARVEST:M  WTH:M  
                                                                                
*SUMMARY OF SOIL AND GENETIC INPUT PARAMETERS                                   
                                                                                
   SOIL LOWER UPPER   SAT  EXTR  INIT   ROOT   BULK     pH    NO3    NH4    ORG 
  DEPTH LIMIT LIMIT    SW    SW    SW   DIST   DENS                          C  
   cm   cm3/cm3    cm3/cm3    cm3/cm3         g/cm3         ugN/g  ugN/g     %  
------------------------------------------------------------------------------- 
  0-  5 0.331 0.542 0.585 0.211 0.394   1.00   1.11   6.50  15.00   1.50   2.74 
  5- 15 0.331 0.542 0.585 0.211 0.394   1.00   1.11   6.50  15.00   1.50   2.74 
 15- 30 0.331 0.542 0.585 0.211 0.394   1.00   1.11   6.50  15.00   1.50   2.74 
 30- 45 0.290 0.438 0.491 0.148 0.334   0.43   1.26   6.50   8.50   1.50   1.07 
 45- 60 0.292 0.431 0.480 0.138 0.375   0.39   1.29   6.27   4.53   1.50   0.90 
 60- 90 0.293 0.419 0.466 0.126 0.419   0.32   1.34   6.00   0.00   1.50   0.64 
 90-108 0.286 0.408 0.460 0.122 0.408   0.23   1.36   6.00   0.00   1.50   0.35 
108-125 0.276 0.395 0.456 0.119 0.395   0.12   1.38   6.00   0.00   1.50   0.14 
                                                                                
TOT-125  37.3  55.9  62.1  18.6  49.1  <--cm   -  kg/ha-->   74.8   23.9 166127 
SOIL ALBEDO    : 0.09      EVAPORATION LIMIT : 6.00         MIN. FACTOR  : 1.00 
RUNOFF CURVE # :10.00      DRAINAGE RATE     : 0.40         FERT. FACTOR : 1.00 
                                                                                
 SOYBEAN    CULTIVAR :UY0141-GM 4 UY            ECOTYPE :SB0401                 
 CSDVAR :13.39  PPSEN  : 0.29  EMG-FLW:21.50  FLW-FSD:18.00  FSD-PHM : 32.00    
 WTPSD  :0.190  SDPDVR : 2.20  SDFDUR :23.00  PODDUR :10.00  XFRUIT  :  1.00    
                                                                                
                                                                                
                                                                                
                                                                                
*SIMULATED CROP AND SOIL STATUS AT MAIN DEVELOPMENT STAGES

 RUN NO.     1     UYSB                    

        CROP GROWTH   BIOMASS         LEAF   CROP N     STRESS  
   DATE  AGE STAGE      kg/ha    LAI   NUM  kg/ha  %   H2O    N 
 ------  --- ---------- -----  -----  ----  ---  ---  ----  ----
 25 AUG    0 Start Sim      0   0.00   0.0    0  0.0  0.00  0.00
 28 AUG    0 Sowing         0   0.00   0.0    0  0.0  0.00  0.00
  9 SEP   12 Emergence      4   0.01   0.1    0  5.1  0.00  0.00
  9 SEP   12 End Juven.     4   0.01   0.1    0  5.1  0.00  0.00
 28 SEP   31 Unifoliate    10   0.02   1.1    0  4.9  0.00  0.00
 28 SEP   31 Flower Ind    10   0.02   1.1    0  4.9  0.00  0.00
  5 NOV   69 First Flwr   362   0.50   7.1   16  4.3  0.00  0.00
 20 NOV   84 First Pod   1362   1.35   9.6   56  4.1  0.00  0.00
 12 DEC  106 First Seed  4077   2.01  14.0  123  3.0  0.00  0.07
 24 DEC  118 End Leaf    5450   1.93  16.4  159  2.9  0.00  0.00
 28 DEC  122 End Msnode  5700   1.87  17.3  167  2.9  0.00  0.00
 30 DEC  124 End Pod     5867   1.84  17.3  173  2.9  0.00  0.00
 30 JAN  155 Phys. Mat   7438   1.33  17.3  252  3.4  0.00  0.01
 11 FEB  167 Harv. Mat   6262   0.09  17.3  228  3.6  0.00  0.04
 11 FEB  167 Harvest     6262   0.09  17.3  228  3.6  0.00  0.00


*MAIN GROWTH AND DEVELOPMENT VARIABLES

@     VARIABLE                          SIMULATED     MEASURED
      --------                          ---------     --------
      Anthesis day (dap)                       69          -99
      First pod day (dap)                      84          -99
      First seed day (dap)                    106          -99
      Physiological maturity day (dap)        155          -99
      Yield at harvest maturity (kg [dm]/    3181          -99
      Pod/Ear/Panicle weight at maturity     4743          -99
      Number at maturity (no/m2)             2120          -99
      Unit wt at maturity (g [dm]/unit)    0.1501          -99
      Number at maturity (no/unit)           2.20          -99
      Tops weight at maturity (kg [dm]/ha    6262          -99
      By-product produced (stalk) at matu    3080          -99
      Leaf area index, maximum               2.01          -99
      Harvest index at maturity             0.508          -99
      Threshing % at maturity               67.07          -99
      Grain N at maturity (kg/ha)             193          -99
      Tops N at maturity (kg/ha)              228          -99
      Stem N at maturity (kg/ha)               11          -99
      Grain N at maturity (%)                6.07          -99
      Tops weight at anthesis (kg [dm]/ha     362          -99
      Tops N at anthesis (kg/ha)               16          -99
      Leaf number per stem at maturity      17.33          -99
      Grain oil at maturity (%)             20.59          -99
      Canopy height (m)                      0.80          -99
      Harvest maturity day (dap)              167          -99


*ENVIRONMENTAL AND STRESS FACTORS

 |-----Development Phase------|-------------Environment--------------|---------Stress----------|
                              |--------Average-------|---Cumulative--|  (0=Min, 1=Max Stress)  |
                         Time  Temp  Temp Solar Photop         Evapo |----Water---|--Nitrogen--|
                         Span   Max   Min   Rad  [day]   Rain  Trans  Photo         Photo
                         days    øC    øC MJ/m2     hr     mm     mm  synth Growth  synth Growth
------------------------------------------------------------------------------------------------
 Emergence -First Flower   57  20.8  11.5  16.2  12.55  376.7  140.0  0.000  0.000  0.000  0.000
 First Flower-First Seed   37  25.2  13.0  23.6  13.79   65.5  169.0  0.000  0.000  0.000  0.039
 First Seed - Phys. Mat.   49  28.1  16.6  23.6  13.93  293.9  263.3  0.000  0.000  0.073  0.008
 Emergence  - Phys. Mat.  143  24.4  13.6  20.6  13.35  736.1  572.2  0.000  0.000  0.006  0.013

                   Soybean YIELD :     3181 kg/ha    [Dry weight] 

************************************************************************************************

*DSSAT Cropping System Model Ver. 4.0.2.000               Aug 29, 2016; 09:16:37
                                                                                
*RUN   2        : UYSB                                                          
 MODEL          : CRGRO040 - SOYBEAN                                            
 EXPERIMENT     : UYSB0405 SN late to create DSS                                
 TREATMENT  1   : UYSB                                                          
                                                                                
 CROP           : SOYBEAN        CULTIVAR : GM 4 UY          ECOTYPE :SB0401    
 STARTING DATE  : AUG 25 2000                                                   
 PLANTING DATE  : AUG 28 2000    PLANTS/m2 :  7.0     ROW SPACING :  15.cm      
 WEATHER        : UYTA   2000                                                   
 SOIL           : UYSS0N2002     TEXTURE :       -  N20-02    SNIA CLAY RISS    
 SOIL INITIAL C : DEPTH:125cm EXTR. H2O:186.3mm  NO3: 74.8kg/ha  NH4: 23.9kg/ha 
 WATER BALANCE  : AUTOMATIC IRRIGATION - REFILL PROFILE                         
 IRRIGATION     : AUTOMATIC - PLANTING -> MATURITY [ SOIL DEPTH:30.00m 50.%]    
 NITROGEN BAL.  : SOIL-N, N-UPTAKE & DYNAMIC N-FIXATION SIMULATION              
 N-FERTILIZER   : NO N-FERTILIZER APPLIED                                       
 RESIDUE/MANURE : INITIAL :     0 kg/ha ;       0 kg/ha IN     0 APPLICATIONS   
 ENVIRONM. OPT. : DAYL=    0.00  SRAD=    0.00  TMAX=    0.00  TMIN=    0.00    
                  RAIN=    0.00  CO2 = R330.00  DEW =    0.00  WIND=    0.00    
 SIMULATION OPT : WATER   :Y  NITROGEN:Y  N-FIX:Y  PHOSPH :N  PESTS  :N         
                  PHOTO   :C  ET      :R  INFIL:S  HYDROL :R  SOM    :G         
 MANAGEMENT OPT : PLANTING:R  IRRIG   :A  FERT :N  RESIDUE:N  HARVEST:M  WTH:M  
                                                                                
*SUMMARY OF SOIL AND GENETIC INPUT PARAMETERS                                   
                                                                                
   SOIL LOWER UPPER   SAT  EXTR  INIT   ROOT   BULK     pH    NO3    NH4    ORG 
  DEPTH LIMIT LIMIT    SW    SW    SW   DIST   DENS                          C  
   cm   cm3/cm3    cm3/cm3    cm3/cm3         g/cm3         ugN/g  ugN/g     %  
------------------------------------------------------------------------------- 
  0-  5 0.331 0.542 0.585 0.211 0.394   1.00   1.11   6.50  15.00   1.50   2.74 
  5- 15 0.331 0.542 0.585 0.211 0.394   1.00   1.11   6.50  15.00   1.50   2.74 
 15- 30 0.331 0.542 0.585 0.211 0.394   1.00   1.11   6.50  15.00   1.50   2.74 
 30- 45 0.290 0.438 0.491 0.148 0.334   0.43   1.26   6.50   8.50   1.50   1.07 
 45- 60 0.292 0.431 0.480 0.138 0.375   0.39   1.29   6.27   4.53   1.50   0.90 
 60- 90 0.293 0.419 0.466 0.126 0.419   0.32   1.34   6.00   0.00   1.50   0.64 
 90-108 0.286 0.408 0.460 0.122 0.408   0.23   1.36   6.00   0.00   1.50   0.35 
108-125 0.276 0.395 0.456 0.119 0.395   0.12   1.38   6.00   0.00   1.50   0.14 
                                                                                
TOT-125  37.3  55.9  62.1  18.6  49.1  <--cm   -  kg/ha-->   74.8   23.9 166127 
SOIL ALBEDO    : 0.09      EVAPORATION LIMIT : 6.00         MIN. FACTOR  : 1.00 
RUNOFF CURVE # :10.00      DRAINAGE RATE     : 0.40         FERT. FACTOR : 1.00 
                                                                                
 SOYBEAN    CULTIVAR :UY0141-GM 4 UY            ECOTYPE :SB0401                 
 CSDVAR :13.39  PPSEN  : 0.29  EMG-FLW:21.50  FLW-FSD:18.00  FSD-PHM : 32.00    
 WTPSD  :0.190  SDPDVR : 2.20  SDFDUR :23.00  PODDUR :10.00  XFRUIT  :  1.00    
                                                                                
                                                                                
                                                                                
                                                                                
*SIMULATED CROP AND SOIL STATUS AT MAIN DEVELOPMENT STAGES

 RUN NO.     2     UYSB                    

        CROP GROWTH   BIOMASS         LEAF   CROP N     STRESS  
   DATE  AGE STAGE      kg/ha    LAI   NUM  kg/ha  %   H2O    N 
 ------  --- ---------- -----  -----  ----  ---  ---  ----  ----
 26 AUG    0 Start Sim      0   0.00   0.0    0  0.0  0.00  0.00
 29 AUG    0 Sowing         0   0.00   0.0    0  0.0  0.00  0.00
  8 SEP   10 Emergence      4   0.01   0.0    0  5.1  0.00  0.00
  8 SEP   10 End Juven.     4   0.01   0.0    0  5.1  0.00  0.00
 25 SEP   27 Unifoliate     9   0.01   1.1    0  4.9  0.00  0.00
 26 SEP   28 Flower Ind     9   0.02   1.2    0  4.9  0.00  0.00
 31 OCT   63 First Flwr   285   0.46   7.0   12  4.3  0.00  0.00
 13 NOV   76 First Pod    991   1.18   9.3   41  4.1  0.00  0.00
  5 DEC   98 First Seed  3320   1.72  13.3   95  2.9  0.00  0.08
 17 DEC  110 End Leaf    4554   1.66  15.7  128  2.8  0.00  0.00
 21 DEC  114 End Msnode  4776   1.62  16.5  136  2.8  0.00  0.00
 24 DEC  117 End Pod     5059   1.59  16.5  145  2.9  0.00  0.00
 24 JAN  148 Phys. Mat   6682   1.19  16.5  227  3.4  0.00  0.00
  5 FEB  160 Harv. Mat   5644   0.08  16.5  204  3.6  0.00  0.02
  5 FEB  160 Harvest     5644   0.08  16.5  204  3.6  0.00  0.00


*MAIN GROWTH AND DEVELOPMENT VARIABLES

@     VARIABLE                          SIMULATED     MEASURED
      --------                          ---------     --------
      Anthesis day (dap)                       63          -99
      First pod day (dap)                      76          -99
      First seed day (dap)                     98          -99
      Physiological maturity day (dap)        148          -99
      Yield at harvest maturity (kg [dm]/    2747          -99
      Pod/Ear/Panicle weight at maturity     4303          -99
      Number at maturity (no/m2)             1869          -99
      Unit wt at maturity (g [dm]/unit)    0.1470          -99
      Number at maturity (no/unit)           2.20          -99
      Tops weight at maturity (kg [dm]/ha    5644          -99
      By-product produced (stalk) at matu    2900          -99
      Leaf area index, maximum               1.72          -99
      Harvest index at maturity             0.487          -99
      Threshing % at maturity               63.85          -99
      Grain N at maturity (kg/ha)             169          -99
      Tops N at maturity (kg/ha)              204          -99
      Stem N at maturity (kg/ha)               10          -99
      Grain N at maturity (%)                6.16          -99
      Tops weight at anthesis (kg [dm]/ha     285          -99
      Tops N at anthesis (kg/ha)               12          -99
      Leaf number per stem at maturity      16.48          -99
      Grain oil at maturity (%)             20.24          -99
      Canopy height (m)                      0.77          -99
      Harvest maturity day (dap)              160          -99


*ENVIRONMENTAL AND STRESS FACTORS

 |-----Development Phase------|-------------Environment--------------|---------Stress----------|
                              |--------Average-------|---Cumulative--|  (0=Min, 1=Max Stress)  |
                         Time  Temp  Temp Solar Photop         Evapo |----Water---|--Nitrogen--|
                         Span   Max   Min   Rad  [day]   Rain  Trans  Photo         Photo
                         days    øC    øC MJ/m2     hr     mm     mm  synth Growth  synth Growth
------------------------------------------------------------------------------------------------
 Emergence -First Flower   53  21.1  12.2  15.3  12.43  390.4  109.8  0.000  0.000  0.000  0.000
 First Flower-First Seed   35  24.3  13.6  21.8  13.66  198.0  137.8  0.000  0.000  0.000  0.048
 First Seed - Phys. Mat.   50  27.5  15.4  25.4  13.98   95.3  265.9  0.000  0.000  0.067  0.000
 Emergence  - Phys. Mat.  138  24.2  13.7  20.6  13.30  683.7  513.6  0.000  0.000  0.006  0.012

                   Soybean YIELD :     2747 kg/ha    [Dry weight] 

************************************************************************************************

*DSSAT Cropping System Model Ver. 4.0.2.000               Aug 29, 2016; 09:16:37
                                                                                
*RUN   3        : UYSB                                                          
 MODEL          : CRGRO040 - SOYBEAN                                            
 EXPERIMENT     : UYSB0405 SN late to create DSS                                
 TREATMENT  1   : UYSB                                                          
                                                                                
 CROP           : SOYBEAN        CULTIVAR : GM 4 UY          ECOTYPE :SB0401    
 STARTING DATE  : AUG 25 2000                                                   
 PLANTING DATE  : AUG 28 2000    PLANTS/m2 :  7.0     ROW SPACING :  15.cm      
 WEATHER        : UYTA   2000                                                   
 SOIL           : UYSS0N2002     TEXTURE :       -  N20-02    SNIA CLAY RISS    
 SOIL INITIAL C : DEPTH:125cm EXTR. H2O:186.3mm  NO3: 74.8kg/ha  NH4: 23.9kg/ha 
 WATER BALANCE  : AUTOMATIC IRRIGATION - REFILL PROFILE                         
 IRRIGATION     : AUTOMATIC - PLANTING -> MATURITY [ SOIL DEPTH:30.00m 50.%]    
 NITROGEN BAL.  : SOIL-N, N-UPTAKE & DYNAMIC N-FIXATION SIMULATION              
 N-FERTILIZER   : NO N-FERTILIZER APPLIED                                       
 RESIDUE/MANURE : INITIAL :     0 kg/ha ;       0 kg/ha IN     0 APPLICATIONS   
 ENVIRONM. OPT. : DAYL=    0.00  SRAD=    0.00  TMAX=    0.00  TMIN=    0.00    
                  RAIN=    0.00  CO2 = R330.00  DEW =    0.00  WIND=    0.00    
 SIMULATION OPT : WATER   :Y  NITROGEN:Y  N-FIX:Y  PHOSPH :N  PESTS  :N         
                  PHOTO   :C  ET      :R  INFIL:S  HYDROL :R  SOM    :G         
 MANAGEMENT OPT : PLANTING:R  IRRIG   :A  FERT :N  RESIDUE:N  HARVEST:M  WTH:M  
                                                                                
*SUMMARY OF SOIL AND GENETIC INPUT PARAMETERS                                   
                                                                                
   SOIL LOWER UPPER   SAT  EXTR  INIT   ROOT   BULK     pH    NO3    NH4    ORG 
  DEPTH LIMIT LIMIT    SW    SW    SW   DIST   DENS                          C  
   cm   cm3/cm3    cm3/cm3    cm3/cm3         g/cm3         ugN/g  ugN/g     %  
------------------------------------------------------------------------------- 
  0-  5 0.331 0.542 0.585 0.211 0.394   1.00   1.11   6.50  15.00   1.50   2.74 
  5- 15 0.331 0.542 0.585 0.211 0.394   1.00   1.11   6.50  15.00   1.50   2.74 
 15- 30 0.331 0.542 0.585 0.211 0.394   1.00   1.11   6.50  15.00   1.50   2.74 
 30- 45 0.290 0.438 0.491 0.148 0.334   0.43   1.26   6.50   8.50   1.50   1.07 
 45- 60 0.292 0.431 0.480 0.138 0.375   0.39   1.29   6.27   4.53   1.50   0.90 
 60- 90 0.293 0.419 0.466 0.126 0.419   0.32   1.34   6.00   0.00   1.50   0.64 
 90-108 0.286 0.408 0.460 0.122 0.408   0.23   1.36   6.00   0.00   1.50   0.35 
108-125 0.276 0.395 0.456 0.119 0.395   0.12   1.38   6.00   0.00   1.50   0.14 
                                                                                
TOT-125  37.3  55.9  62.1  18.6  49.1  <--cm   -  kg/ha-->   74.8   23.9 166127 
SOIL ALBEDO    : 0.09      EVAPORATION LIMIT : 6.00         MIN. FACTOR  : 1.00 
RUNOFF CURVE # :10.00      DRAINAGE RATE     : 0.40         FERT. FACTOR : 1.00 
                                                                                
 SOYBEAN    CULTIVAR :UY0141-GM 4 UY            ECOTYPE :SB0401                 
 CSDVAR :13.39  PPSEN  : 0.29  EMG-FLW:21.50  FLW-FSD:18.00  FSD-PHM : 32.00    
 WTPSD  :0.190  SDPDVR : 2.20  SDFDUR :23.00  PODDUR :10.00  XFRUIT  :  1.00    
                                                                                
                                                                                
                                                                                
                                                                                
*SIMULATED CROP AND SOIL STATUS AT MAIN DEVELOPMENT STAGES

 RUN NO.     3     UYSB                    

        CROP GROWTH   BIOMASS         LEAF   CROP N     STRESS  
   DATE  AGE STAGE      kg/ha    LAI   NUM  kg/ha  %   H2O    N 
 ------  --- ---------- -----  -----  ----  ---  ---  ----  ----
 26 AUG    0 Start Sim      0   0.00   0.0    0  0.0  0.00  0.00
 29 AUG    0 Sowing         0   0.00   0.0    0  0.0  0.00  0.00
  9 SEP   11 Emergence      4   0.01   0.0    0  5.1  0.00  0.00
  9 SEP   11 End Juven.     4   0.01   0.0    0  5.1  0.00  0.00
 27 SEP   29 Unifoliate    10   0.02   1.1    0  4.9  0.00  0.00
 28 SEP   30 Flower Ind    11   0.02   1.4    1  4.9  0.00  0.00
 28 OCT   60 First Flwr   246   0.43   6.9   10  4.1  0.00  0.00
 11 NOV   74 First Pod    802   0.92   9.0   33  4.2  0.00  0.00
 29 NOV   92 First Seed  2455   1.42  13.0   80  3.2  0.00  0.04
 11 DEC  104 End Leaf    3506   1.30  15.5   97  2.8  0.00  0.09
 14 DEC  107 End Msnode  3711   1.27  16.1  105  2.8  0.00  0.00
 16 DEC  109 End Pod     3829   1.25  16.1  110  2.9  0.00  0.00
 18 JAN  142 Phys. Mat   5173   0.91  16.1  195  3.8  0.00  0.01
 30 JAN  154 Harv. Mat   4593   0.06  16.1  186  4.1  0.00  0.02
 30 JAN  154 Harvest     4593   0.06  16.1  186  4.1  0.00  0.00


*MAIN GROWTH AND DEVELOPMENT VARIABLES

@     VARIABLE                          SIMULATED     MEASURED
      --------                          ---------     --------
      Anthesis day (dap)                       60          -99
      First pod day (dap)                      74          -99
      First seed day (dap)                     92          -99
      Physiological maturity day (dap)        142          -99
      Yield at harvest maturity (kg [dm]/    2677          -99
      Pod/Ear/Panicle weight at maturity     3834          -99
      Number at maturity (no/m2)             1569          -99
      Unit wt at maturity (g [dm]/unit)    0.1707          -99
      Number at maturity (no/unit)           2.20          -99
      Tops weight at maturity (kg [dm]/ha    4593          -99
      By-product produced (stalk) at matu    1920          -99
      Leaf area index, maximum               1.43          -99
      Harvest index at maturity             0.583          -99
      Threshing % at maturity               69.82          -99
      Grain N at maturity (kg/ha)             165          -99
      Tops N at maturity (kg/ha)              186          -99
      Stem N at maturity (kg/ha)                5          -99
      Grain N at maturity (%)                6.18          -99
      Tops weight at anthesis (kg [dm]/ha     246          -99
      Tops N at anthesis (kg/ha)               10          -99
      Leaf number per stem at maturity      16.11          -99
      Grain oil at maturity (%)             20.46          -99
      Canopy height (m)                      0.80          -99
      Harvest maturity day (dap)              154          -99


*ENVIRONMENTAL AND STRESS FACTORS

 |-----Development Phase------|-------------Environment--------------|---------Stress----------|
                              |--------Average-------|---Cumulative--|  (0=Min, 1=Max Stress)  |
                         Time  Temp  Temp Solar Photop         Evapo |----Water---|--Nitrogen--|
                         Span   Max   Min   Rad  [day]   Rain  Trans  Photo         Photo
                         days    øC    øC MJ/m2     hr     mm     mm  synth Growth  synth Growth
------------------------------------------------------------------------------------------------
 Emergence -First Flower   49  22.2  12.5  15.9  12.40  607.2  114.1  0.000  0.000  0.000  0.000
 First Flower-First Seed   32  24.6  14.7  19.8  13.57  269.2  123.1  0.000  0.000  0.000  0.023
 First Seed - Phys. Mat.   50  27.1  17.0  22.1  14.00  317.1  219.9  0.000  0.000  0.077  0.031
 Emergence  - Phys. Mat.  131  24.7  14.8  19.2  13.29   1194    457  0.000  0.000  0.012  0.017

                   Soybean YIELD :     2677 kg/ha    [Dry weight] 

************************************************************************************************

*DSSAT Cropping System Model Ver. 4.0.2.000               Aug 29, 2016; 09:16:37
                                                                                
*RUN   4        : UYSB                                                          
 MODEL          : CRGRO040 - SOYBEAN                                            
 EXPERIMENT     : UYSB0405 SN late to create DSS                                
 TREATMENT  1   : UYSB                                                          
                                                                                
 CROP           : SOYBEAN        CULTIVAR : GM 4 UY          ECOTYPE :SB0401    
 STARTING DATE  : AUG 25 2000                                                   
 PLANTING DATE  : AUG 28 2000    PLANTS/m2 :  7.0     ROW SPACING :  15.cm      
 WEATHER        : UYTA   2000                                                   
 SOIL           : UYSS0N2002     TEXTURE :       -  N20-02    SNIA CLAY RISS    
 SOIL INITIAL C : DEPTH:125cm EXTR. H2O:186.3mm  NO3: 74.8kg/ha  NH4: 23.9kg/ha 
 WATER BALANCE  : AUTOMATIC IRRIGATION - REFILL PROFILE                         
 IRRIGATION     : AUTOMATIC - PLANTING -> MATURITY [ SOIL DEPTH:30.00m 50.%]    
 NITROGEN BAL.  : SOIL-N, N-UPTAKE & DYNAMIC N-FIXATION SIMULATION              
 N-FERTILIZER   : NO N-FERTILIZER APPLIED                                       
 RESIDUE/MANURE : INITIAL :     0 kg/ha ;       0 kg/ha IN     0 APPLICATIONS   
 ENVIRONM. OPT. : DAYL=    0.00  SRAD=    0.00  TMAX=    0.00  TMIN=    0.00    
                  RAIN=    0.00  CO2 = R330.00  DEW =    0.00  WIND=    0.00    
 SIMULATION OPT : WATER   :Y  NITROGEN:Y  N-FIX:Y  PHOSPH :N  PESTS  :N         
                  PHOTO   :C  ET      :R  INFIL:S  HYDROL :R  SOM    :G         
 MANAGEMENT OPT : PLANTING:R  IRRIG   :A  FERT :N  RESIDUE:N  HARVEST:M  WTH:M  
                                                                                
*SUMMARY OF SOIL AND GENETIC INPUT PARAMETERS                                   
                                                                                
   SOIL LOWER UPPER   SAT  EXTR  INIT   ROOT   BULK     pH    NO3    NH4    ORG 
  DEPTH LIMIT LIMIT    SW    SW    SW   DIST   DENS                          C  
   cm   cm3/cm3    cm3/cm3    cm3/cm3         g/cm3         ugN/g  ugN/g     %  
------------------------------------------------------------------------------- 
  0-  5 0.331 0.542 0.585 0.211 0.394   1.00   1.11   6.50  15.00   1.50   2.74 
  5- 15 0.331 0.542 0.585 0.211 0.394   1.00   1.11   6.50  15.00   1.50   2.74 
 15- 30 0.331 0.542 0.585 0.211 0.394   1.00   1.11   6.50  15.00   1.50   2.74 
 30- 45 0.290 0.438 0.491 0.148 0.334   0.43   1.26   6.50   8.50   1.50   1.07 
 45- 60 0.292 0.431 0.480 0.138 0.375   0.39   1.29   6.27   4.53   1.50   0.90 
 60- 90 0.293 0.419 0.466 0.126 0.419   0.32   1.34   6.00   0.00   1.50   0.64 
 90-108 0.286 0.408 0.460 0.122 0.408   0.23   1.36   6.00   0.00   1.50   0.35 
108-125 0.276 0.395 0.456 0.119 0.395   0.12   1.38   6.00   0.00   1.50   0.14 
                                                                                
TOT-125  37.3  55.9  62.1  18.6  49.1  <--cm   -  kg/ha-->   74.8   23.9 166127 
SOIL ALBEDO    : 0.09      EVAPORATION LIMIT : 6.00         MIN. FACTOR  : 1.00 
RUNOFF CURVE # :10.00      DRAINAGE RATE     : 0.40         FERT. FACTOR : 1.00 
                                                                                
 SOYBEAN    CULTIVAR :UY0141-GM 4 UY            ECOTYPE :SB0401                 
 CSDVAR :13.39  PPSEN  : 0.29  EMG-FLW:21.50  FLW-FSD:18.00  FSD-PHM : 32.00    
 WTPSD  :0.190  SDPDVR : 2.20  SDFDUR :23.00  PODDUR :10.00  XFRUIT  :  1.00    
                                                                                
                                                                                
                                                                                
                                                                                
*SIMULATED CROP AND SOIL STATUS AT MAIN DEVELOPMENT STAGES

 RUN NO.     4     UYSB                    

        CROP GROWTH   BIOMASS         LEAF   CROP N     STRESS  
   DATE  AGE STAGE      kg/ha    LAI   NUM  kg/ha  %   H2O    N 
 ------  --- ---------- -----  -----  ----  ---  ---  ----  ----
 26 AUG    0 Start Sim      0   0.00   0.0    0  0.0  0.00  0.00
 29 AUG    0 Sowing         0   0.00   0.0    0  0.0  0.00  0.00
  9 SEP   11 Emergence      4   0.01   0.0    0  5.1  0.00  0.00
  9 SEP   11 End Juven.     4   0.01   0.0    0  5.1  0.00  0.00
 30 SEP   32 Unifoliate    10   0.01   1.1    1  4.9  0.00  0.00
  2 OCT   34 Flower Ind    12   0.02   1.4    1  4.9  0.00  0.00
  9 NOV   72 First Flwr   544   0.72   7.7   23  4.3  0.00  0.00
 23 NOV   86 First Pod   1676   1.76  10.3   69  4.1  0.00  0.00
 14 DEC  107 First Seed  4628   2.35  14.5  139  3.0  0.00  0.09
 27 DEC  120 End Leaf    5871   2.22  17.0  173  2.9  0.00  0.00
 31 DEC  124 End Msnode  6210   2.16  17.7  185  3.0  0.00  0.00
  2 JAN  126 End Pod     6456   2.13  17.7  193  3.0  0.00  0.00
  1 FEB  156 Phys. Mat   8129   1.52  17.7  282  3.5  0.00  0.00
 13 FEB  168 Harv. Mat   6955   0.10  17.7  257  3.7  0.00  0.01
 13 FEB  168 Harvest     6955   0.10  17.7  257  3.7  0.00  0.00


*MAIN GROWTH AND DEVELOPMENT VARIABLES

@     VARIABLE                          SIMULATED     MEASURED
      --------                          ---------     --------
      Anthesis day (dap)                       72          -99
      First pod day (dap)                      86          -99
      First seed day (dap)                    107          -99
      Physiological maturity day (dap)        156          -99
      Yield at harvest maturity (kg [dm]/    3561          -99
      Pod/Ear/Panicle weight at maturity     5342          -99
      Number at maturity (no/m2)             2269          -99
      Unit wt at maturity (g [dm]/unit)    0.1570          -99
      Number at maturity (no/unit)           2.20          -99
      Tops weight at maturity (kg [dm]/ha    6955          -99
      By-product produced (stalk) at matu    3390          -99
      Leaf area index, maximum               2.35          -99
      Harvest index at maturity             0.512          -99
      Threshing % at maturity               66.66          -99
      Grain N at maturity (kg/ha)             218          -99
      Tops N at maturity (kg/ha)              257          -99
      Stem N at maturity (kg/ha)               12          -99
      Grain N at maturity (%)                6.13          -99
      Tops weight at anthesis (kg [dm]/ha     544          -99
      Tops N at anthesis (kg/ha)               23          -99
      Leaf number per stem at maturity      17.68          -99
      Grain oil at maturity (%)             20.75          -99
      Canopy height (m)                      0.82          -99
      Harvest maturity day (dap)              168          -99


*ENVIRONMENTAL AND STRESS FACTORS

 |-----Development Phase------|-------------Environment--------------|---------Stress----------|
                              |--------Average-------|---Cumulative--|  (0=Min, 1=Max Stress)  |
                         Time  Temp  Temp Solar Photop         Evapo |----Water---|--Nitrogen--|
                         Span   Max   Min   Rad  [day]   Rain  Trans  Photo         Photo
                         days    øC    øC MJ/m2     hr     mm     mm  synth Growth  synth Growth
------------------------------------------------------------------------------------------------
 Emergence -First Flower   61  22.1   9.8  19.9  12.58  124.4  120.9  0.000  0.000  0.000  0.000
 First Flower-First Seed   35  26.0  13.9  22.8  13.83  221.6  175.6  0.000  0.000  0.000  0.054
 First Seed - Phys. Mat.   49  28.4  16.1  24.3  13.91  175.9  271.6  0.000  0.000  0.042  0.003
 Emergence  - Phys. Mat.  145  25.2  12.9  22.1  13.33  521.9  568.2  0.000  0.000  0.000  0.014

                   Soybean YIELD :     3561 kg/ha    [Dry weight] 

************************************************************************************************

*DSSAT Cropping System Model Ver. 4.0.2.000               Aug 29, 2016; 09:16:37
                                                                                
*RUN   5        : UYSB                                                          
 MODEL          : CRGRO040 - SOYBEAN                                            
 EXPERIMENT     : UYSB0405 SN late to create DSS                                
 TREATMENT  1   : UYSB                                                          
                                                                                
 CROP           : SOYBEAN        CULTIVAR : GM 4 UY          ECOTYPE :SB0401    
 STARTING DATE  : AUG 25 2000                                                   
 PLANTING DATE  : AUG 28 2000    PLANTS/m2 :  7.0     ROW SPACING :  15.cm      
 WEATHER        : UYTA   2000                                                   
 SOIL           : UYSS0N2002     TEXTURE :       -  N20-02    SNIA CLAY RISS    
 SOIL INITIAL C : DEPTH:125cm EXTR. H2O:186.3mm  NO3: 74.8kg/ha  NH4: 23.9kg/ha 
 WATER BALANCE  : AUTOMATIC IRRIGATION - REFILL PROFILE                         
 IRRIGATION     : AUTOMATIC - PLANTING -> MATURITY [ SOIL DEPTH:30.00m 50.%]    
 NITROGEN BAL.  : SOIL-N, N-UPTAKE & DYNAMIC N-FIXATION SIMULATION              
 N-FERTILIZER   : NO N-FERTILIZER APPLIED                                       
 RESIDUE/MANURE : INITIAL :     0 kg/ha ;       0 kg/ha IN     0 APPLICATIONS   
 ENVIRONM. OPT. : DAYL=    0.00  SRAD=    0.00  TMAX=    0.00  TMIN=    0.00    
                  RAIN=    0.00  CO2 = R330.00  DEW =    0.00  WIND=    0.00    
 SIMULATION OPT : WATER   :Y  NITROGEN:Y  N-FIX:Y  PHOSPH :N  PESTS  :N         
                  PHOTO   :C  ET      :R  INFIL:S  HYDROL :R  SOM    :G         
 MANAGEMENT OPT : PLANTING:R  IRRIG   :A  FERT :N  RESIDUE:N  HARVEST:M  WTH:M  
                                                                                
*SUMMARY OF SOIL AND GENETIC INPUT PARAMETERS                                   
                                                                                
   SOIL LOWER UPPER   SAT  EXTR  INIT   ROOT   BULK     pH    NO3    NH4    ORG 
  DEPTH LIMIT LIMIT    SW    SW    SW   DIST   DENS                          C  
   cm   cm3/cm3    cm3/cm3    cm3/cm3         g/cm3         ugN/g  ugN/g     %  
------------------------------------------------------------------------------- 
  0-  5 0.331 0.542 0.585 0.211 0.394   1.00   1.11   6.50  15.00   1.50   2.74 
  5- 15 0.331 0.542 0.585 0.211 0.394   1.00   1.11   6.50  15.00   1.50   2.74 
 15- 30 0.331 0.542 0.585 0.211 0.394   1.00   1.11   6.50  15.00   1.50   2.74 
 30- 45 0.290 0.438 0.491 0.148 0.334   0.43   1.26   6.50   8.50   1.50   1.07 
 45- 60 0.292 0.431 0.480 0.138 0.375   0.39   1.29   6.27   4.53   1.50   0.90 
 60- 90 0.293 0.419 0.466 0.126 0.419   0.32   1.34   6.00   0.00   1.50   0.64 
 90-108 0.286 0.408 0.460 0.122 0.408   0.23   1.36   6.00   0.00   1.50   0.35 
108-125 0.276 0.395 0.456 0.119 0.395   0.12   1.38   6.00   0.00   1.50   0.14 
                                                                                
TOT-125  37.3  55.9  62.1  18.6  49.1  <--cm   -  kg/ha-->   74.8   23.9 166127 
SOIL ALBEDO    : 0.09      EVAPORATION LIMIT : 6.00         MIN. FACTOR  : 1.00 
RUNOFF CURVE # :10.00      DRAINAGE RATE     : 0.40         FERT. FACTOR : 1.00 
                                                                                
 SOYBEAN    CULTIVAR :UY0141-GM 4 UY            ECOTYPE :SB0401                 
 CSDVAR :13.39  PPSEN  : 0.29  EMG-FLW:21.50  FLW-FSD:18.00  FSD-PHM : 32.00    
 WTPSD  :0.190  SDPDVR : 2.20  SDFDUR :23.00  PODDUR :10.00  XFRUIT  :  1.00    
                                                                                
                                                                                
                                                                                
                                                                                
*SIMULATED CROP AND SOIL STATUS AT MAIN DEVELOPMENT STAGES

 RUN NO.     5     UYSB                    

        CROP GROWTH   BIOMASS         LEAF   CROP N     STRESS  
   DATE  AGE STAGE      kg/ha    LAI   NUM  kg/ha  %   H2O    N 
 ------  --- ---------- -----  -----  ----  ---  ---  ----  ----
 25 AUG    0 Start Sim      0   0.00   0.0    0  0.0  0.00  0.00
 28 AUG    0 Sowing         0   0.00   0.0    0  0.0  0.00  0.00
  5 SEP    8 Emergence      4   0.01   0.1    0  5.2  0.00  0.00
  5 SEP    8 End Juven.     4   0.01   0.1    0  5.2  0.00  0.00
 23 SEP   26 Unifoliate     9   0.01   1.1    0  4.9  0.00  0.00
 23 SEP   26 Flower Ind     9   0.01   1.1    0  4.9  0.00  0.00
 13 NOV   77 First Flwr   617   0.80   8.0   26  4.3  0.00  0.00
 27 NOV   91 First Pod   1829   1.96  10.6   75  4.1  0.00  0.00
 18 DEC  112 First Seed  5226   2.72  15.2  156  3.0  0.00  0.07
 30 DEC  124 End Leaf    6679   2.58  17.7  198  3.0  0.00  0.00
  2 JAN  127 End Msnode  6976   2.52  18.4  208  3.0  0.00  0.00
  5 JAN  130 End Pod     7122   2.45  18.4  215  3.0  0.00  0.00
  3 FEB  159 Phys. Mat   9088   1.81  18.4  318  3.5  0.00  0.01
 15 FEB  171 Harv. Mat   7719   0.12  18.4  288  3.7  0.00  0.04
 15 FEB  171 Harvest     7719   0.12  18.4  288  3.7  0.00  0.00


*MAIN GROWTH AND DEVELOPMENT VARIABLES

@     VARIABLE                          SIMULATED     MEASURED
      --------                          ---------     --------
      Anthesis day (dap)                       77          -99
      First pod day (dap)                      91          -99
      First seed day (dap)                    112          -99
      Physiological maturity day (dap)        159          -99
      Yield at harvest maturity (kg [dm]/    3974          -99
      Pod/Ear/Panicle weight at maturity     5989          -99
      Number at maturity (no/m2)             2751          -99
      Unit wt at maturity (g [dm]/unit)    0.1445          -99
      Number at maturity (no/unit)           2.20          -99
      Tops weight at maturity (kg [dm]/ha    7719          -99
      By-product produced (stalk) at matu    3750          -99
      Leaf area index, maximum               2.72          -99
      Harvest index at maturity             0.515          -99
      Threshing % at maturity               66.36          -99
      Grain N at maturity (kg/ha)             245          -99
      Tops N at maturity (kg/ha)              288          -99
      Stem N at maturity (kg/ha)               12          -99
      Grain N at maturity (%)                6.17          -99
      Tops weight at anthesis (kg [dm]/ha     617          -99
      Tops N at anthesis (kg/ha)               26          -99
      Leaf number per stem at maturity      18.39          -99
      Grain oil at maturity (%)             20.40          -99
      Canopy height (m)                      0.83          -99
      Harvest maturity day (dap)              171          -99


*ENVIRONMENTAL AND STRESS FACTORS

 |-----Development Phase------|-------------Environment--------------|---------Stress----------|
                              |--------Average-------|---Cumulative--|  (0=Min, 1=Max Stress)  |
                         Time  Temp  Temp Solar Photop         Evapo |----Water---|--Nitrogen--|
                         Span   Max   Min   Rad  [day]   Rain  Trans  Photo         Photo
                         days    øC    øC MJ/m2     hr     mm     mm  synth Growth  synth Growth
------------------------------------------------------------------------------------------------
 Emergence -First Flower   69  21.5   9.4  18.2  12.61  267.4  140.6  0.000  0.000  0.000  0.000
 First Flower-First Seed   35  26.6  14.5  24.2  13.90   73.5  180.4  0.000  0.000  0.000  0.041
 First Seed - Phys. Mat.   47  30.0  15.8  26.4  13.88  125.4  289.5  0.000  0.000  0.086  0.005
 Emergence  - Phys. Mat.  151  25.3  12.6  22.2  13.30  466.3  610.4  0.000  0.000  0.007  0.011

                   Soybean YIELD :     3974 kg/ha    [Dry weight] 

************************************************************************************************

*DSSAT Cropping System Model Ver. 4.0.2.000               Aug 29, 2016; 09:16:37
                                                                                
*RUN   6        : UYSB                                                          
 MODEL          : CRGRO040 - SOYBEAN                                            
 EXPERIMENT     : UYSB0405 SN late to create DSS                                
 TREATMENT  1   : UYSB                                                          
                                                                                
 CROP           : SOYBEAN        CULTIVAR : GM 4 UY          ECOTYPE :SB0401    
 STARTING DATE  : AUG 25 2000                                                   
 PLANTING DATE  : AUG 28 2000    PLANTS/m2 :  7.0     ROW SPACING :  15.cm      
 WEATHER        : UYTA   2000                                                   
 SOIL           : UYSS0N2002     TEXTURE :       -  N20-02    SNIA CLAY RISS    
 SOIL INITIAL C : DEPTH:125cm EXTR. H2O:186.3mm  NO3: 74.8kg/ha  NH4: 23.9kg/ha 
 WATER BALANCE  : AUTOMATIC IRRIGATION - REFILL PROFILE                         
 IRRIGATION     : AUTOMATIC - PLANTING -> MATURITY [ SOIL DEPTH:30.00m 50.%]    
 NITROGEN BAL.  : SOIL-N, N-UPTAKE & DYNAMIC N-FIXATION SIMULATION              
 N-FERTILIZER   : NO N-FERTILIZER APPLIED                                       
 RESIDUE/MANURE : INITIAL :     0 kg/ha ;       0 kg/ha IN     0 APPLICATIONS   
 ENVIRONM. OPT. : DAYL=    0.00  SRAD=    0.00  TMAX=    0.00  TMIN=    0.00    
                  RAIN=    0.00  CO2 = R330.00  DEW =    0.00  WIND=    0.00    
 SIMULATION OPT : WATER   :Y  NITROGEN:Y  N-FIX:Y  PHOSPH :N  PESTS  :N         
                  PHOTO   :C  ET      :R  INFIL:S  HYDROL :R  SOM    :G         
 MANAGEMENT OPT : PLANTING:R  IRRIG   :A  FERT :N  RESIDUE:N  HARVEST:M  WTH:M  
                                                                                
*SUMMARY OF SOIL AND GENETIC INPUT PARAMETERS                                   
                                                                                
   SOIL LOWER UPPER   SAT  EXTR  INIT   ROOT   BULK     pH    NO3    NH4    ORG 
  DEPTH LIMIT LIMIT    SW    SW    SW   DIST   DENS                          C  
   cm   cm3/cm3    cm3/cm3    cm3/cm3         g/cm3         ugN/g  ugN/g     %  
------------------------------------------------------------------------------- 
  0-  5 0.331 0.542 0.585 0.211 0.394   1.00   1.11   6.50  15.00   1.50   2.74 
  5- 15 0.331 0.542 0.585 0.211 0.394   1.00   1.11   6.50  15.00   1.50   2.74 
 15- 30 0.331 0.542 0.585 0.211 0.394   1.00   1.11   6.50  15.00   1.50   2.74 
 30- 45 0.290 0.438 0.491 0.148 0.334   0.43   1.26   6.50   8.50   1.50   1.07 
 45- 60 0.292 0.431 0.480 0.138 0.375   0.39   1.29   6.27   4.53   1.50   0.90 
 60- 90 0.293 0.419 0.466 0.126 0.419   0.32   1.34   6.00   0.00   1.50   0.64 
 90-108 0.286 0.408 0.460 0.122 0.408   0.23   1.36   6.00   0.00   1.50   0.35 
108-125 0.276 0.395 0.456 0.119 0.395   0.12   1.38   6.00   0.00   1.50   0.14 
                                                                                
TOT-125  37.3  55.9  62.1  18.6  49.1  <--cm   -  kg/ha-->   74.8   23.9 166127 
SOIL ALBEDO    : 0.09      EVAPORATION LIMIT : 6.00         MIN. FACTOR  : 1.00 
RUNOFF CURVE # :10.00      DRAINAGE RATE     : 0.40         FERT. FACTOR : 1.00 
                                                                                
 SOYBEAN    CULTIVAR :UY0141-GM 4 UY            ECOTYPE :SB0401                 
 CSDVAR :13.39  PPSEN  : 0.29  EMG-FLW:21.50  FLW-FSD:18.00  FSD-PHM : 32.00    
 WTPSD  :0.190  SDPDVR : 2.20  SDFDUR :23.00  PODDUR :10.00  XFRUIT  :  1.00    
                                                                                
                                                                                
                                                                                
                                                                                
*SIMULATED CROP AND SOIL STATUS AT MAIN DEVELOPMENT STAGES

 RUN NO.     6     UYSB                    

        CROP GROWTH   BIOMASS         LEAF   CROP N     STRESS  
   DATE  AGE STAGE      kg/ha    LAI   NUM  kg/ha  %   H2O    N 
 ------  --- ---------- -----  -----  ----  ---  ---  ----  ----
 26 AUG    0 Start Sim      0   0.00   0.0    0  0.0  0.00  0.00
 29 AUG    0 Sowing         0   0.00   0.0    0  0.0  0.00  0.00
 12 SEP   14 Emergence      4   0.01   0.0    0  5.1  0.00  0.00
 12 SEP   14 End Juven.     4   0.01   0.0    0  5.1  0.00  0.00
  1 OCT   33 Unifoliate    10   0.01   1.1    0  4.9  0.00  0.00
  1 OCT   33 Flower Ind    10   0.01   1.1    0  4.9  0.00  0.00
 17 NOV   80 First Flwr   656   0.83   7.8   28  4.3  0.00  0.00
 29 NOV   92 First Pod   1920   2.05  10.6   79  4.1  0.00  0.00
 21 DEC  114 First Seed  5226   2.76  15.0  163  3.1  0.00  0.04
  1 JAN  125 End Leaf    6554   2.65  17.5  198  3.0  0.00  0.00
  5 JAN  129 End Msnode  6927   2.56  18.4  209  3.0  0.00  0.00
  8 JAN  132 End Pod     7187   2.50  18.4  218  3.0  0.00  0.00
  5 FEB  160 Phys. Mat   8926   1.82  18.4  308  3.5  0.00  0.00
 17 FEB  172 Harv. Mat   7587   0.12  18.4  279  3.7  0.00  0.08
 17 FEB  172 Harvest     7587   0.12  18.4  279  3.7  0.00  0.00


*MAIN GROWTH AND DEVELOPMENT VARIABLES

@     VARIABLE                          SIMULATED     MEASURED
      --------                          ---------     --------
      Anthesis day (dap)                       80          -99
      First pod day (dap)                      92          -99
      First seed day (dap)                    114          -99
      Physiological maturity day (dap)        160          -99
      Yield at harvest maturity (kg [dm]/    3943          -99
      Pod/Ear/Panicle weight at maturity     5711          -99
      Number at maturity (no/m2)             2506          -99
      Unit wt at maturity (g [dm]/unit)    0.1573          -99
      Number at maturity (no/unit)           2.20          -99
      Tops weight at maturity (kg [dm]/ha    7587          -99
      By-product produced (stalk) at matu    3640          -99
      Leaf area index, maximum               2.77          -99
      Harvest index at maturity             0.520          -99
      Threshing % at maturity               69.04          -99
      Grain N at maturity (kg/ha)             241          -99
      Tops N at maturity (kg/ha)              279          -99
      Stem N at maturity (kg/ha)               13          -99
      Grain N at maturity (%)                6.11          -99
      Tops weight at anthesis (kg [dm]/ha     656          -99
      Tops N at anthesis (kg/ha)               28          -99
      Leaf number per stem at maturity      18.38          -99
      Grain oil at maturity (%)             20.76          -99
      Canopy height (m)                      0.86          -99
      Harvest maturity day (dap)              172          -99


*ENVIRONMENTAL AND STRESS FACTORS

 |-----Development Phase------|-------------Environment--------------|---------Stress----------|
                              |--------Average-------|---Cumulative--|  (0=Min, 1=Max Stress)  |
                         Time  Temp  Temp Solar Photop         Evapo |----Water---|--Nitrogen--|
                         Span   Max   Min   Rad  [day]   Rain  Trans  Photo         Photo
                         days    øC    øC MJ/m2     hr     mm     mm  synth Growth  synth Growth
------------------------------------------------------------------------------------------------
 Emergence -First Flower   66  20.7  10.3  19.2  12.75  288.9  140.5  0.000  0.000  0.000  0.000
 First Flower-First Seed   34  27.7  14.2  25.7  13.94   73.4  183.7  0.000  0.000  0.000  0.028
 First Seed - Phys. Mat.   46  30.5  17.4  24.2  13.85   95.1  264.9  0.000  0.000  0.084  0.001
 Emergence  - Phys. Mat.  146  25.4  13.4  22.3  13.37  457.4  589.1  0.000  0.000  0.007  0.007

                   Soybean YIELD :     3943 kg/ha    [Dry weight] 

************************************************************************************************

*DSSAT Cropping System Model Ver. 4.0.2.000               Aug 29, 2016; 09:16:37
                                                                                
*RUN   7        : UYSB                                                          
 MODEL          : CRGRO040 - SOYBEAN                                            
 EXPERIMENT     : UYSB0405 SN late to create DSS                                
 TREATMENT  1   : UYSB                                                          
                                                                                
 CROP           : SOYBEAN        CULTIVAR : GM 4 UY          ECOTYPE :SB0401    
 STARTING DATE  : AUG 25 2000                                                   
 PLANTING DATE  : AUG 28 2000    PLANTS/m2 :  7.0     ROW SPACING :  15.cm      
 WEATHER        : UYTA   2000                                                   
 SOIL           : UYSS0N2002     TEXTURE :       -  N20-02    SNIA CLAY RISS    
 SOIL INITIAL C : DEPTH:125cm EXTR. H2O:186.3mm  NO3: 74.8kg/ha  NH4: 23.9kg/ha 
 WATER BALANCE  : AUTOMATIC IRRIGATION - REFILL PROFILE                         
 IRRIGATION     : AUTOMATIC - PLANTING -> MATURITY [ SOIL DEPTH:30.00m 50.%]    
 NITROGEN BAL.  : SOIL-N, N-UPTAKE & DYNAMIC N-FIXATION SIMULATION              
 N-FERTILIZER   : NO N-FERTILIZER APPLIED                                       
 RESIDUE/MANURE : INITIAL :     0 kg/ha ;       0 kg/ha IN     0 APPLICATIONS   
 ENVIRONM. OPT. : DAYL=    0.00  SRAD=    0.00  TMAX=    0.00  TMIN=    0.00    
                  RAIN=    0.00  CO2 = R330.00  DEW =    0.00  WIND=    0.00    
 SIMULATION OPT : WATER   :Y  NITROGEN:Y  N-FIX:Y  PHOSPH :N  PESTS  :N         
                  PHOTO   :C  ET      :R  INFIL:S  HYDROL :R  SOM    :G         
 MANAGEMENT OPT : PLANTING:R  IRRIG   :A  FERT :N  RESIDUE:N  HARVEST:M  WTH:M  
                                                                                
*SUMMARY OF SOIL AND GENETIC INPUT PARAMETERS                                   
                                                                                
   SOIL LOWER UPPER   SAT  EXTR  INIT   ROOT   BULK     pH    NO3    NH4    ORG 
  DEPTH LIMIT LIMIT    SW    SW    SW   DIST   DENS                          C  
   cm   cm3/cm3    cm3/cm3    cm3/cm3         g/cm3         ugN/g  ugN/g     %  
------------------------------------------------------------------------------- 
  0-  5 0.331 0.542 0.585 0.211 0.394   1.00   1.11   6.50  15.00   1.50   2.74 
  5- 15 0.331 0.542 0.585 0.211 0.394   1.00   1.11   6.50  15.00   1.50   2.74 
 15- 30 0.331 0.542 0.585 0.211 0.394   1.00   1.11   6.50  15.00   1.50   2.74 
 30- 45 0.290 0.438 0.491 0.148 0.334   0.43   1.26   6.50   8.50   1.50   1.07 
 45- 60 0.292 0.431 0.480 0.138 0.375   0.39   1.29   6.27   4.53   1.50   0.90 
 60- 90 0.293 0.419 0.466 0.126 0.419   0.32   1.34   6.00   0.00   1.50   0.64 
 90-108 0.286 0.408 0.460 0.122 0.408   0.23   1.36   6.00   0.00   1.50   0.35 
108-125 0.276 0.395 0.456 0.119 0.395   0.12   1.38   6.00   0.00   1.50   0.14 
                                                                                
TOT-125  37.3  55.9  62.1  18.6  49.1  <--cm   -  kg/ha-->   74.8   23.9 166127 
SOIL ALBEDO    : 0.09      EVAPORATION LIMIT : 6.00         MIN. FACTOR  : 1.00 
RUNOFF CURVE # :10.00      DRAINAGE RATE     : 0.40         FERT. FACTOR : 1.00 
                                                                                
 SOYBEAN    CULTIVAR :UY0141-GM 4 UY            ECOTYPE :SB0401                 
 CSDVAR :13.39  PPSEN  : 0.29  EMG-FLW:21.50  FLW-FSD:18.00  FSD-PHM : 32.00    
 WTPSD  :0.190  SDPDVR : 2.20  SDFDUR :23.00  PODDUR :10.00  XFRUIT  :  1.00    
                                                                                
                                                                                
                                                                                
                                                                                
*SIMULATED CROP AND SOIL STATUS AT MAIN DEVELOPMENT STAGES

 RUN NO.     7     UYSB                    

        CROP GROWTH   BIOMASS         LEAF   CROP N     STRESS  
   DATE  AGE STAGE      kg/ha    LAI   NUM  kg/ha  %   H2O    N 
 ------  --- ---------- -----  -----  ----  ---  ---  ----  ----
 26 AUG    0 Start Sim      0   0.00   0.0    0  0.0  0.00  0.00
 29 AUG    0 Sowing         0   0.00   0.0    0  0.0  0.00  0.00
 12 SEP   14 Emergence      4   0.01   0.0    0  5.1  0.00  0.00
 12 SEP   14 End Juven.     4   0.01   0.0    0  5.1  0.00  0.00
 29 SEP   31 Unifoliate    10   0.01   1.1    0  4.9  0.00  0.00
  1 OCT   33 Flower Ind    12   0.02   1.4    1  4.9  0.00  0.00
  5 NOV   68 First Flwr   444   0.68   7.6   19  4.3  0.00  0.00
 18 NOV   81 First Pod   1352   1.47   9.8   56  4.1  0.00  0.00
  8 DEC  101 First Seed  4068   2.10  14.1  129  3.2  0.00  0.09
 19 DEC  112 End Leaf    5154   1.94  16.8  142  2.7  0.00  0.13
 22 DEC  115 End Msnode  5483   1.89  17.3  149  2.7  0.00  0.03
 25 DEC  118 End Pod     5584   1.84  17.3  156  2.8  0.00  0.00
 25 JAN  149 Phys. Mat   7353   1.31  17.3  278  3.8  0.00  0.01
  6 FEB  161 Harv. Mat   6557   0.09  17.3  262  4.0  0.00  0.07
  6 FEB  161 Harvest     6557   0.09  17.3  262  4.0  0.00  0.00


*MAIN GROWTH AND DEVELOPMENT VARIABLES

@     VARIABLE                          SIMULATED     MEASURED
      --------                          ---------     --------
      Anthesis day (dap)                       68          -99
      First pod day (dap)                      81          -99
      First seed day (dap)                    101          -99
      Physiological maturity day (dap)        149          -99
      Yield at harvest maturity (kg [dm]/    3742          -99
      Pod/Ear/Panicle weight at maturity     5424          -99
      Number at maturity (no/m2)             2260          -99
      Unit wt at maturity (g [dm]/unit)    0.1656          -99
      Number at maturity (no/unit)           2.20          -99
      Tops weight at maturity (kg [dm]/ha    6557          -99
      By-product produced (stalk) at matu    2820          -99
      Leaf area index, maximum               2.15          -99
      Harvest index at maturity             0.571          -99
      Threshing % at maturity               68.99          -99
      Grain N at maturity (kg/ha)             231          -99
      Tops N at maturity (kg/ha)              262          -99
      Stem N at maturity (kg/ha)                7          -99
      Grain N at maturity (%)                6.19          -99
      Tops weight at anthesis (kg [dm]/ha     444          -99
      Tops N at anthesis (kg/ha)               19          -99
      Leaf number per stem at maturity      17.33          -99
      Grain oil at maturity (%)             20.50          -99
      Canopy height (m)                      0.84          -99
      Harvest maturity day (dap)              161          -99


*ENVIRONMENTAL AND STRESS FACTORS

 |-----Development Phase------|-------------Environment--------------|---------Stress----------|
                              |--------Average-------|---Cumulative--|  (0=Min, 1=Max Stress)  |
                         Time  Temp  Temp Solar Photop         Evapo |----Water---|--Nitrogen--|
                         Span   Max   Min   Rad  [day]   Rain  Trans  Photo         Photo
                         days    øC    øC MJ/m2     hr     mm     mm  synth Growth  synth Growth
------------------------------------------------------------------------------------------------
 Emergence -First Flower   54  23.4  11.2  19.5  12.57   85.9   91.3  0.000  0.000  0.000  0.000
 First Flower-First Seed   33  25.9  14.1  23.1  13.75  116.5  152.2  0.000  0.000  0.000  0.054
 First Seed - Phys. Mat.   48  29.4  17.4  24.9  13.97  243.2  261.8  0.000  0.000  0.046  0.036
 Emergence  - Phys. Mat.  135  26.2  14.1  22.3  13.36  445.6  505.3  0.000  0.000  0.000  0.026

                   Soybean YIELD :     3742 kg/ha    [Dry weight] 

************************************************************************************************

*DSSAT Cropping System Model Ver. 4.0.2.000               Aug 29, 2016; 09:16:37
                                                                                
*RUN   8        : UYSB                                                          
 MODEL          : CRGRO040 - SOYBEAN                                            
 EXPERIMENT     : UYSB0405 SN late to create DSS                                
 TREATMENT  1   : UYSB                                                          
                                                                                
 CROP           : SOYBEAN        CULTIVAR : GM 4 UY          ECOTYPE :SB0401    
 STARTING DATE  : AUG 25 2000                                                   
 PLANTING DATE  : AUG 28 2000    PLANTS/m2 :  7.0     ROW SPACING :  15.cm      
 WEATHER        : UYTA   2000                                                   
 SOIL           : UYSS0N2002     TEXTURE :       -  N20-02    SNIA CLAY RISS    
 SOIL INITIAL C : DEPTH:125cm EXTR. H2O:186.3mm  NO3: 74.8kg/ha  NH4: 23.9kg/ha 
 WATER BALANCE  : AUTOMATIC IRRIGATION - REFILL PROFILE                         
 IRRIGATION     : AUTOMATIC - PLANTING -> MATURITY [ SOIL DEPTH:30.00m 50.%]    
 NITROGEN BAL.  : SOIL-N, N-UPTAKE & DYNAMIC N-FIXATION SIMULATION              
 N-FERTILIZER   : NO N-FERTILIZER APPLIED                                       
 RESIDUE/MANURE : INITIAL :     0 kg/ha ;       0 kg/ha IN     0 APPLICATIONS   
 ENVIRONM. OPT. : DAYL=    0.00  SRAD=    0.00  TMAX=    0.00  TMIN=    0.00    
                  RAIN=    0.00  CO2 = R330.00  DEW =    0.00  WIND=    0.00    
 SIMULATION OPT : WATER   :Y  NITROGEN:Y  N-FIX:Y  PHOSPH :N  PESTS  :N         
                  PHOTO   :C  ET      :R  INFIL:S  HYDROL :R  SOM    :G         
 MANAGEMENT OPT : PLANTING:R  IRRIG   :A  FERT :N  RESIDUE:N  HARVEST:M  WTH:M  
                                                                                
*SUMMARY OF SOIL AND GENETIC INPUT PARAMETERS                                   
                                                                                
   SOIL LOWER UPPER   SAT  EXTR  INIT   ROOT   BULK     pH    NO3    NH4    ORG 
  DEPTH LIMIT LIMIT    SW    SW    SW   DIST   DENS                          C  
   cm   cm3/cm3    cm3/cm3    cm3/cm3         g/cm3         ugN/g  ugN/g     %  
------------------------------------------------------------------------------- 
  0-  5 0.331 0.542 0.585 0.211 0.394   1.00   1.11   6.50  15.00   1.50   2.74 
  5- 15 0.331 0.542 0.585 0.211 0.394   1.00   1.11   6.50  15.00   1.50   2.74 
 15- 30 0.331 0.542 0.585 0.211 0.394   1.00   1.11   6.50  15.00   1.50   2.74 
 30- 45 0.290 0.438 0.491 0.148 0.334   0.43   1.26   6.50   8.50   1.50   1.07 
 45- 60 0.292 0.431 0.480 0.138 0.375   0.39   1.29   6.27   4.53   1.50   0.90 
 60- 90 0.293 0.419 0.466 0.126 0.419   0.32   1.34   6.00   0.00   1.50   0.64 
 90-108 0.286 0.408 0.460 0.122 0.408   0.23   1.36   6.00   0.00   1.50   0.35 
108-125 0.276 0.395 0.456 0.119 0.395   0.12   1.38   6.00   0.00   1.50   0.14 
                                                                                
TOT-125  37.3  55.9  62.1  18.6  49.1  <--cm   -  kg/ha-->   74.8   23.9 166127 
SOIL ALBEDO    : 0.09      EVAPORATION LIMIT : 6.00         MIN. FACTOR  : 1.00 
RUNOFF CURVE # :10.00      DRAINAGE RATE     : 0.40         FERT. FACTOR : 1.00 
                                                                                
 SOYBEAN    CULTIVAR :UY0141-GM 4 UY            ECOTYPE :SB0401                 
 CSDVAR :13.39  PPSEN  : 0.29  EMG-FLW:21.50  FLW-FSD:18.00  FSD-PHM : 32.00    
 WTPSD  :0.190  SDPDVR : 2.20  SDFDUR :23.00  PODDUR :10.00  XFRUIT  :  1.00    
                                                                                
                                                                                
                                                                                
                                                                                
*SIMULATED CROP AND SOIL STATUS AT MAIN DEVELOPMENT STAGES

 RUN NO.     8     UYSB                    

        CROP GROWTH   BIOMASS         LEAF   CROP N     STRESS  
   DATE  AGE STAGE      kg/ha    LAI   NUM  kg/ha  %   H2O    N 
 ------  --- ---------- -----  -----  ----  ---  ---  ----  ----
 26 AUG    0 Start Sim      0   0.00   0.0    0  0.0  0.00  0.00
 29 AUG    0 Sowing         0   0.00   0.0    0  0.0  0.00  0.00
  8 SEP   10 Emergence      4   0.01   0.1    0  5.2  0.00  0.00
  8 SEP   10 End Juven.     4   0.01   0.1    0  5.2  0.00  0.00
 15 SEP   17 Flower Ind     6   0.01   0.8    0  5.0  0.00  0.00
 18 SEP   20 Unifoliate     6   0.01   1.1    0  5.0  0.00  0.00
 27 OCT   59 First Flwr   287   0.45   6.8   13  4.4  0.00  0.00
  9 NOV   72 First Pod    933   1.08   9.1   39  4.2  0.00  0.00
  1 DEC   94 First Seed  3365   1.61  13.0  106  3.1  0.00  0.06
 13 DEC  106 End Leaf    4787   1.50  15.5  125  2.6  0.00  0.12
 16 DEC  109 End Msnode  4991   1.47  16.2  133  2.7  0.00  0.00
 18 DEC  111 End Pod     5195   1.45  16.2  140  2.7  0.00  0.00
 19 JAN  143 Phys. Mat   6432   1.06  16.2  223  3.5  0.00  0.01
 31 JAN  155 Harv. Mat   5539   0.07  16.2  203  3.7  0.00  0.06
 31 JAN  155 Harvest     5539   0.07  16.2  203  3.7  0.00  0.00


*MAIN GROWTH AND DEVELOPMENT VARIABLES

@     VARIABLE                          SIMULATED     MEASURED
      --------                          ---------     --------
      Anthesis day (dap)                       59          -99
      First pod day (dap)                      72          -99
      First seed day (dap)                     94          -99
      Physiological maturity day (dap)        143          -99
      Yield at harvest maturity (kg [dm]/    2777          -99
      Pod/Ear/Panicle weight at maturity     4269          -99
      Number at maturity (no/m2)             1928          -99
      Unit wt at maturity (g [dm]/unit)    0.1441          -99
      Number at maturity (no/unit)           2.20          -99
      Tops weight at maturity (kg [dm]/ha    5539          -99
      By-product produced (stalk) at matu    2760          -99
      Leaf area index, maximum               1.61          -99
      Harvest index at maturity             0.501          -99
      Threshing % at maturity               65.05          -99
      Grain N at maturity (kg/ha)             170          -99
      Tops N at maturity (kg/ha)              203          -99
      Stem N at maturity (kg/ha)                9          -99
      Grain N at maturity (%)                6.11          -99
      Tops weight at anthesis (kg [dm]/ha     287          -99
      Tops N at anthesis (kg/ha)               13          -99
      Leaf number per stem at maturity      16.21          -99
      Grain oil at maturity (%)             20.87          -99
      Canopy height (m)                      0.77          -99
      Harvest maturity day (dap)              155          -99


*ENVIRONMENTAL AND STRESS FACTORS

 |-----Development Phase------|-------------Environment--------------|---------Stress----------|
                              |--------Average-------|---Cumulative--|  (0=Min, 1=Max Stress)  |
                         Time  Temp  Temp Solar Photop         Evapo |----Water---|--Nitrogen--|
                         Span   Max   Min   Rad  [day]   Rain  Trans  Photo         Photo
                         days    øC    øC MJ/m2     hr     mm     mm  synth Growth  synth Growth
------------------------------------------------------------------------------------------------
 Emergence -First Flower   49  21.9  12.7  14.4  12.37  250.4   96.4  0.000  0.000  0.000  0.000
 First Flower-First Seed   35  24.3  12.7  23.1  13.58  111.6  148.7  0.000  0.000  0.000  0.037
 First Seed - Phys. Mat.   49  30.2  16.8  25.6  14.00  103.0  278.9  0.000  0.000  0.051  0.034
 Emergence  - Phys. Mat.  133  25.6  14.2  20.8  13.29  465.0  523.9  0.000  0.000  0.001  0.022

                   Soybean YIELD :     2777 kg/ha    [Dry weight] 

************************************************************************************************

*DSSAT Cropping System Model Ver. 4.0.2.000               Aug 29, 2016; 09:16:37
                                                                                
*RUN   9        : UYSB                                                          
 MODEL          : CRGRO040 - SOYBEAN                                            
 EXPERIMENT     : UYSB0405 SN late to create DSS                                
 TREATMENT  1   : UYSB                                                          
                                                                                
 CROP           : SOYBEAN        CULTIVAR : GM 4 UY          ECOTYPE :SB0401    
 STARTING DATE  : AUG 25 2000                                                   
 PLANTING DATE  : AUG 28 2000    PLANTS/m2 :  7.0     ROW SPACING :  15.cm      
 WEATHER        : UYTA   2000                                                   
 SOIL           : UYSS0N2002     TEXTURE :       -  N20-02    SNIA CLAY RISS    
 SOIL INITIAL C : DEPTH:125cm EXTR. H2O:186.3mm  NO3: 74.8kg/ha  NH4: 23.9kg/ha 
 WATER BALANCE  : AUTOMATIC IRRIGATION - REFILL PROFILE                         
 IRRIGATION     : AUTOMATIC - PLANTING -> MATURITY [ SOIL DEPTH:30.00m 50.%]    
 NITROGEN BAL.  : SOIL-N, N-UPTAKE & DYNAMIC N-FIXATION SIMULATION              
 N-FERTILIZER   : NO N-FERTILIZER APPLIED                                       
 RESIDUE/MANURE : INITIAL :     0 kg/ha ;       0 kg/ha IN     0 APPLICATIONS   
 ENVIRONM. OPT. : DAYL=    0.00  SRAD=    0.00  TMAX=    0.00  TMIN=    0.00    
                  RAIN=    0.00  CO2 = R330.00  DEW =    0.00  WIND=    0.00    
 SIMULATION OPT : WATER   :Y  NITROGEN:Y  N-FIX:Y  PHOSPH :N  PESTS  :N         
                  PHOTO   :C  ET      :R  INFIL:S  HYDROL :R  SOM    :G         
 MANAGEMENT OPT : PLANTING:R  IRRIG   :A  FERT :N  RESIDUE:N  HARVEST:M  WTH:M  
                                                                                
*SUMMARY OF SOIL AND GENETIC INPUT PARAMETERS                                   
                                                                                
   SOIL LOWER UPPER   SAT  EXTR  INIT   ROOT   BULK     pH    NO3    NH4    ORG 
  DEPTH LIMIT LIMIT    SW    SW    SW   DIST   DENS                          C  
   cm   cm3/cm3    cm3/cm3    cm3/cm3         g/cm3         ugN/g  ugN/g     %  
------------------------------------------------------------------------------- 
  0-  5 0.331 0.542 0.585 0.211 0.394   1.00   1.11   6.50  15.00   1.50   2.74 
  5- 15 0.331 0.542 0.585 0.211 0.394   1.00   1.11   6.50  15.00   1.50   2.74 
 15- 30 0.331 0.542 0.585 0.211 0.394   1.00   1.11   6.50  15.00   1.50   2.74 
 30- 45 0.290 0.438 0.491 0.148 0.334   0.43   1.26   6.50   8.50   1.50   1.07 
 45- 60 0.292 0.431 0.480 0.138 0.375   0.39   1.29   6.27   4.53   1.50   0.90 
 60- 90 0.293 0.419 0.466 0.126 0.419   0.32   1.34   6.00   0.00   1.50   0.64 
 90-108 0.286 0.408 0.460 0.122 0.408   0.23   1.36   6.00   0.00   1.50   0.35 
108-125 0.276 0.395 0.456 0.119 0.395   0.12   1.38   6.00   0.00   1.50   0.14 
                                                                                
TOT-125  37.3  55.9  62.1  18.6  49.1  <--cm   -  kg/ha-->   74.8   23.9 166127 
SOIL ALBEDO    : 0.09      EVAPORATION LIMIT : 6.00         MIN. FACTOR  : 1.00 
RUNOFF CURVE # :10.00      DRAINAGE RATE     : 0.40         FERT. FACTOR : 1.00 
                                                                                
 SOYBEAN    CULTIVAR :UY0141-GM 4 UY            ECOTYPE :SB0401                 
 CSDVAR :13.39  PPSEN  : 0.29  EMG-FLW:21.50  FLW-FSD:18.00  FSD-PHM : 32.00    
 WTPSD  :0.190  SDPDVR : 2.20  SDFDUR :23.00  PODDUR :10.00  XFRUIT  :  1.00    
                                                                                
                                                                                
                                                                                
                                                                                
*SIMULATED CROP AND SOIL STATUS AT MAIN DEVELOPMENT STAGES

 RUN NO.     9     UYSB                    

        CROP GROWTH   BIOMASS         LEAF   CROP N     STRESS  
   DATE  AGE STAGE      kg/ha    LAI   NUM  kg/ha  %   H2O    N 
 ------  --- ---------- -----  -----  ----  ---  ---  ----  ----
 25 AUG    0 Start Sim      0   0.00   0.0    0  0.0  0.00  0.00
 28 AUG    0 Sowing         0   0.00   0.0    0  0.0  0.00  0.00
  6 SEP    9 Emergence      4   0.01   0.0    0  5.1  0.00  0.00
  6 SEP    9 End Juven.     4   0.01   0.0    0  5.1  0.00  0.00
 28 SEP   31 Unifoliate    11   0.02   1.2    1  4.8  0.00  0.00
 29 SEP   32 Flower Ind    11   0.02   1.3    1  4.9  0.00  0.00
  6 NOV   70 First Flwr   455   0.65   7.5   20  4.3  0.00  0.00
 17 NOV   81 First Pod   1433   1.54   9.8   59  4.1  0.00  0.00
  7 DEC  101 First Seed  4333   2.16  14.2  132  3.1  0.00  0.08
 18 DEC  112 End Leaf    5506   2.02  16.7  158  2.9  0.00  0.02
 22 DEC  116 End Msnode  5745   1.96  17.6  169  2.9  0.00  0.00
 25 DEC  119 End Pod     5842   1.91  17.6  175  3.0  0.00  0.00
 25 JAN  150 Phys. Mat   7642   1.37  17.6  289  3.8  0.00  0.00
  6 FEB  162 Harv. Mat   6665   0.09  17.6  271  4.1  0.00  0.03
  6 FEB  162 Harvest     6665   0.09  17.6  271  4.1  0.00  0.00


*MAIN GROWTH AND DEVELOPMENT VARIABLES

@     VARIABLE                          SIMULATED     MEASURED
      --------                          ---------     --------
      Anthesis day (dap)                       70          -99
      First pod day (dap)                      81          -99
      First seed day (dap)                    101          -99
      Physiological maturity day (dap)        150          -99
      Yield at harvest maturity (kg [dm]/    3768          -99
      Pod/Ear/Panicle weight at maturity     5501          -99
      Number at maturity (no/m2)             2361          -99
      Unit wt at maturity (g [dm]/unit)    0.1596          -99
      Number at maturity (no/unit)           2.20          -99
      Tops weight at maturity (kg [dm]/ha    6665          -99
      By-product produced (stalk) at matu    2900          -99
      Leaf area index, maximum               2.22          -99
      Harvest index at maturity             0.565          -99
      Threshing % at maturity               68.50          -99
      Grain N at maturity (kg/ha)             239          -99
      Tops N at maturity (kg/ha)              271          -99
      Stem N at maturity (kg/ha)                8          -99
      Grain N at maturity (%)                6.33          -99
      Tops weight at anthesis (kg [dm]/ha     455          -99
      Tops N at anthesis (kg/ha)               20          -99
      Leaf number per stem at maturity      17.57          -99
      Grain oil at maturity (%)             20.43          -99
      Canopy height (m)                      0.85          -99
      Harvest maturity day (dap)              162          -99


*ENVIRONMENTAL AND STRESS FACTORS

 |-----Development Phase------|-------------Environment--------------|---------Stress----------|
                              |--------Average-------|---Cumulative--|  (0=Min, 1=Max Stress)  |
                         Time  Temp  Temp Solar Photop         Evapo |----Water---|--Nitrogen--|
                         Span   Max   Min   Rad  [day]   Rain  Trans  Photo         Photo
                         days    øC    øC MJ/m2     hr     mm     mm  synth Growth  synth Growth
------------------------------------------------------------------------------------------------
 Emergence -First Flower   61  21.1  10.5  17.7  12.52  138.4  107.1  0.000  0.000  0.000  0.000
 First Flower-First Seed   31  27.6  15.2  25.8  13.77   71.3  159.6  0.000  0.000  0.000  0.049
 First Seed - Phys. Mat.   49  30.2  16.5  25.4  13.97   21.0  288.7  0.000  0.000  0.076  0.007
 Emergence  - Phys. Mat.  141  25.7  13.7  22.2  13.30  230.7  555.4  0.000  0.000  0.008  0.013

                   Soybean YIELD :     3768 kg/ha    [Dry weight] 

************************************************************************************************

*DSSAT Cropping System Model Ver. 4.0.2.000               Aug 29, 2016; 09:16:37
                                                                                
*RUN  10        : UYSB                                                          
 MODEL          : CRGRO040 - SOYBEAN                                            
 EXPERIMENT     : UYSB0405 SN late to create DSS                                
 TREATMENT  1   : UYSB                                                          
                                                                                
 CROP           : SOYBEAN        CULTIVAR : GM 4 UY          ECOTYPE :SB0401    
 STARTING DATE  : AUG 25 2000                                                   
 PLANTING DATE  : AUG 28 2000    PLANTS/m2 :  7.0     ROW SPACING :  15.cm      
 WEATHER        : UYTA   2000                                                   
 SOIL           : UYSS0N2002     TEXTURE :       -  N20-02    SNIA CLAY RISS    
 SOIL INITIAL C : DEPTH:125cm EXTR. H2O:186.3mm  NO3: 74.8kg/ha  NH4: 23.9kg/ha 
 WATER BALANCE  : AUTOMATIC IRRIGATION - REFILL PROFILE                         
 IRRIGATION     : AUTOMATIC - PLANTING -> MATURITY [ SOIL DEPTH:30.00m 50.%]    
 NITROGEN BAL.  : SOIL-N, N-UPTAKE & DYNAMIC N-FIXATION SIMULATION              
 N-FERTILIZER   : NO N-FERTILIZER APPLIED                                       
 RESIDUE/MANURE : INITIAL :     0 kg/ha ;       0 kg/ha IN     0 APPLICATIONS   
 ENVIRONM. OPT. : DAYL=    0.00  SRAD=    0.00  TMAX=    0.00  TMIN=    0.00    
                  RAIN=    0.00  CO2 = R330.00  DEW =    0.00  WIND=    0.00    
 SIMULATION OPT : WATER   :Y  NITROGEN:Y  N-FIX:Y  PHOSPH :N  PESTS  :N         
                  PHOTO   :C  ET      :R  INFIL:S  HYDROL :R  SOM    :G         
 MANAGEMENT OPT : PLANTING:R  IRRIG   :A  FERT :N  RESIDUE:N  HARVEST:M  WTH:M  
                                                                                
*SUMMARY OF SOIL AND GENETIC INPUT PARAMETERS                                   
                                                                                
   SOIL LOWER UPPER   SAT  EXTR  INIT   ROOT   BULK     pH    NO3    NH4    ORG 
  DEPTH LIMIT LIMIT    SW    SW    SW   DIST   DENS                          C  
   cm   cm3/cm3    cm3/cm3    cm3/cm3         g/cm3         ugN/g  ugN/g     %  
------------------------------------------------------------------------------- 
  0-  5 0.331 0.542 0.585 0.211 0.394   1.00   1.11   6.50  15.00   1.50   2.74 
  5- 15 0.331 0.542 0.585 0.211 0.394   1.00   1.11   6.50  15.00   1.50   2.74 
 15- 30 0.331 0.542 0.585 0.211 0.394   1.00   1.11   6.50  15.00   1.50   2.74 
 30- 45 0.290 0.438 0.491 0.148 0.334   0.43   1.26   6.50   8.50   1.50   1.07 
 45- 60 0.292 0.431 0.480 0.138 0.375   0.39   1.29   6.27   4.53   1.50   0.90 
 60- 90 0.293 0.419 0.466 0.126 0.419   0.32   1.34   6.00   0.00   1.50   0.64 
 90-108 0.286 0.408 0.460 0.122 0.408   0.23   1.36   6.00   0.00   1.50   0.35 
108-125 0.276 0.395 0.456 0.119 0.395   0.12   1.38   6.00   0.00   1.50   0.14 
                                                                                
TOT-125  37.3  55.9  62.1  18.6  49.1  <--cm   -  kg/ha-->   74.8   23.9 166127 
SOIL ALBEDO    : 0.09      EVAPORATION LIMIT : 6.00         MIN. FACTOR  : 1.00 
RUNOFF CURVE # :10.00      DRAINAGE RATE     : 0.40         FERT. FACTOR : 1.00 
                                                                                
 SOYBEAN    CULTIVAR :UY0141-GM 4 UY            ECOTYPE :SB0401                 
 CSDVAR :13.39  PPSEN  : 0.29  EMG-FLW:21.50  FLW-FSD:18.00  FSD-PHM : 32.00    
 WTPSD  :0.190  SDPDVR : 2.20  SDFDUR :23.00  PODDUR :10.00  XFRUIT  :  1.00    
                                                                                
                                                                                
                                                                                
                                                                                
*SIMULATED CROP AND SOIL STATUS AT MAIN DEVELOPMENT STAGES

 RUN NO.    10     UYSB                    

        CROP GROWTH   BIOMASS         LEAF   CROP N     STRESS  
   DATE  AGE STAGE      kg/ha    LAI   NUM  kg/ha  %   H2O    N 
 ------  --- ---------- -----  -----  ----  ---  ---  ----  ----
 26 AUG    0 Start Sim      0   0.00   0.0    0  0.0  0.00  0.00
 29 AUG    0 Sowing         0   0.00   0.0    0  0.0  0.00  0.00
  5 SEP    7 Emergence      4   0.01   0.0    0  5.1  0.00  0.00
  5 SEP    7 End Juven.     4   0.01   0.0    0  5.1  0.00  0.00
 28 SEP   30 Unifoliate    10   0.01   1.0    0  4.9  0.00  0.00
  2 OCT   34 Flower Ind    12   0.02   1.2    1  5.0  0.00  0.00
 15 NOV   78 First Flwr   446   0.70   7.7   19  4.3  0.00  0.00
 27 NOV   90 First Pod   1302   1.76  10.3   48  3.7  0.00  0.00
 21 DEC  114 First Seed  4261   2.49  14.8  128  3.0  0.00  0.02
 31 DEC  124 End Leaf    5164   2.39  17.1  155  3.0  0.00  0.00
  4 JAN  128 End Msnode  5663   2.32  18.0  170  3.0  0.00  0.00
  7 JAN  131 End Pod     5887   2.27  18.0  178  3.0  0.00  0.00
  5 FEB  160 Phys. Mat   7853   1.70  18.0  272  3.5  0.00  0.00
 17 FEB  172 Harv. Mat   6592   0.11  18.0  247  3.7  0.00  0.00
 17 FEB  172 Harvest     6592   0.11  18.0  247  3.7  0.00  0.00


*MAIN GROWTH AND DEVELOPMENT VARIABLES

@     VARIABLE                          SIMULATED     MEASURED
      --------                          ---------     --------
      Anthesis day (dap)                       78          -99
      First pod day (dap)                      90          -99
      First seed day (dap)                    114          -99
      Physiological maturity day (dap)        160          -99
      Yield at harvest maturity (kg [dm]/    3312          -99
      Pod/Ear/Panicle weight at maturity     5115          -99
      Number at maturity (no/m2)             2327          -99
      Unit wt at maturity (g [dm]/unit)    0.1424          -99
      Number at maturity (no/unit)           2.20          -99
      Tops weight at maturity (kg [dm]/ha    6592          -99
      By-product produced (stalk) at matu    3280          -99
      Leaf area index, maximum               2.50          -99
      Harvest index at maturity             0.502          -99
      Threshing % at maturity               64.76          -99
[...]
  7 SEP   10 End Juven.     4   0.01   0.1    0  5.1  0.00  0.00
 18 SEP   21 Flower Ind     7   0.01   1.0    0  4.9  0.00  0.00
 19 SEP   22 Unifoliate     7   0.01   1.1    0  5.0  0.00  0.00
 30 OCT   63 First Flwr   368   0.57   7.3   16  4.3  0.00  0.00
 10 NOV   74 First Pod   1152   1.37   9.6   48  4.1  0.00  0.00
 30 NOV   94 First Seed  3846   1.97  13.8  118  3.1  0.00  0.04
 10 DEC  104 End Leaf    4833   1.87  16.1  144  3.0  0.00  0.01
 14 DEC  108 End Msnode  5156   1.81  17.0  156  3.0  0.00  0.00
 17 DEC  111 End Pod     5392   1.77  17.0  166  3.1  0.00  0.00
 19 JAN  144 Phys. Mat   7168   1.28  17.0  268  3.7  0.00  0.01
 31 JAN  156 Harv. Mat   6302   0.08  17.0  252  4.0  0.00  0.08
 31 JAN  156 Harvest     6302   0.08  17.0  252  4.0  0.00  0.00


*MAIN GROWTH AND DEVELOPMENT VARIABLES

@     VARIABLE                          SIMULATED     MEASURED
      --------                          ---------     --------
      Anthesis day (dap)                       63          -99
      First pod day (dap)                      74          -99
      First seed day (dap)                     94          -99
      Physiological maturity day (dap)        144          -99
      Yield at harvest maturity (kg [dm]/    3602          -99
      Pod/Ear/Panicle weight at maturity     5100          -99
      Number at maturity (no/m2)             2106          -99
      Unit wt at maturity (g [dm]/unit)    0.1710          -99
      Number at maturity (no/unit)           2.20          -99
      Tops weight at maturity (kg [dm]/ha    6302          -99
      By-product produced (stalk) at matu    2700          -99
      Leaf area index, maximum               1.97          -99
      Harvest index at maturity             0.572          -99
      Threshing % at maturity               70.63          -99
      Grain N at maturity (kg/ha)             223          -99
      Tops N at maturity (kg/ha)              252          -99
      Stem N at maturity (kg/ha)                8          -99
      Grain N at maturity (%)                6.18          -99
      Tops weight at anthesis (kg [dm]/ha     368          -99
      Tops N at anthesis (kg/ha)               16          -99
      Leaf number per stem at maturity      17.01          -99
      Grain oil at maturity (%)             20.18          -99
      Canopy height (m)                      0.82          -99
      Harvest maturity day (dap)              156          -99


*ENVIRONMENTAL AND STRESS FACTORS

 |-----Development Phase------|-------------Environment--------------|---------Stress----------|
                              |--------Average-------|---Cumulative--|  (0=Min, 1=Max Stress)  |
                         Time  Temp  Temp Solar Photop         Evapo |----Water---|--Nitrogen--|
                         Span   Max   Min   Rad  [day]   Rain  Trans  Photo         Photo
                         days    øC    øC MJ/m2     hr     mm     mm  synth Growth  synth Growth
------------------------------------------------------------------------------------------------
 Emergence -First Flower   53  22.2  11.6  16.4  12.43  349.1  101.4  0.000  0.000  0.000  0.000
 First Flower-First Seed   31  27.4  14.3  24.6  13.63   38.8  149.1  0.000  0.000  0.000  0.026
 First Seed - Phys. Mat.   50  29.1  16.2  24.1  14.00  311.6  272.0  0.000  0.000  0.102  0.008
 Emergence  - Phys. Mat.  134  26.0  14.0  21.2  13.29  699.5  522.5  0.000  0.000  0.020  0.009

                   Soybean YIELD :     3602 kg/ha    [Dry weight] 

************************************************************************************************

*DSSAT Cropping System Model Ver. 4.0.2.000               Aug 29, 2016; 09:16:37
                                                                                
*RUN  14        : UYSB                                                          
 MODEL          : CRGRO040 - SOYBEAN                                            
 EXPERIMENT     : UYSB0405 SN late to create DSS                                
 TREATMENT  1   : UYSB                                                          
                                                                                
 CROP           : SOYBEAN        CULTIVAR : GM 4 UY          ECOTYPE :SB0401    
 STARTING DATE  : AUG 25 2000                                                   
 PLANTING DATE  : AUG 28 2000    PLANTS/m2 :  7.0     ROW SPACING :  15.cm      
 WEATHER        : UYTA   2000                                                   
 SOIL           : UYSS0N2002     TEXTURE :       -  N20-02    SNIA CLAY RISS    
 SOIL INITIAL C : DEPTH:125cm EXTR. H2O:186.3mm  NO3: 74.8kg/ha  NH4: 23.9kg/ha 
 WATER BALANCE  : AUTOMATIC IRRIGATION - REFILL PROFILE                         
 IRRIGATION     : AUTOMATIC - PLANTING -> MATURITY [ SOIL DEPTH:30.00m 50.%]    
 NITROGEN BAL.  : SOIL-N, N-UPTAKE & DYNAMIC N-FIXATION SIMULATION              
 N-FERTILIZER   : NO N-FERTILIZER APPLIED                                       
 RESIDUE/MANURE : INITIAL :     0 kg/ha ;       0 kg/ha IN     0 APPLICATIONS   
 ENVIRONM. OPT. : DAYL=    0.00  SRAD=    0.00  TMAX=    0.00  TMIN=    0.00    
                  RAIN=    0.00  CO2 = R330.00  DEW =    0.00  WIND=    0.00    
 SIMULATION OPT : WATER   :Y  NITROGEN:Y  N-FIX:Y  PHOSPH :N  PESTS  :N         
                  PHOTO   :C  ET      :R  INFIL:S  HYDROL :R  SOM    :G         
 MANAGEMENT OPT : PLANTING:R  IRRIG   :A  FERT :N  RESIDUE:N  HARVEST:M  WTH:M  
                                                                                
*SUMMARY OF SOIL AND GENETIC INPUT PARAMETERS                                   
                                                                                
   SOIL LOWER UPPER   SAT  EXTR  INIT   ROOT   BULK     pH    NO3    NH4    ORG 
  DEPTH LIMIT LIMIT    SW    SW    SW   DIST   DENS                          C  
   cm   cm3/cm3    cm3/cm3    cm3/cm3         g/cm3         ugN/g  ugN/g     %  
------------------------------------------------------------------------------- 
  0-  5 0.331 0.542 0.585 0.211 0.394   1.00   1.11   6.50  15.00   1.50   2.74 
  5- 15 0.331 0.542 0.585 0.211 0.394   1.00   1.11   6.50  15.00   1.50   2.74 
 15- 30 0.331 0.542 0.585 0.211 0.394   1.00   1.11   6.50  15.00   1.50   2.74 
 30- 45 0.290 0.438 0.491 0.148 0.334   0.43   1.26   6.50   8.50   1.50   1.07 
 45- 60 0.292 0.431 0.480 0.138 0.375   0.39   1.29   6.27   4.53   1.50   0.90 
 60- 90 0.293 0.419 0.466 0.126 0.419   0.32   1.34   6.00   0.00   1.50   0.64 
 90-108 0.286 0.408 0.460 0.122 0.408   0.23   1.36   6.00   0.00   1.50   0.35 
108-125 0.276 0.395 0.456 0.119 0.395   0.12   1.38   6.00   0.00   1.50   0.14 
                                                                                
TOT-125  37.3  55.9  62.1  18.6  49.1  <--cm   -  kg/ha-->   74.8   23.9 166127 
SOIL ALBEDO    : 0.09      EVAPORATION LIMIT : 6.00         MIN. FACTOR  : 1.00 
RUNOFF CURVE # :10.00      DRAINAGE RATE     : 0.40         FERT. FACTOR : 1.00 
                                                                                
 SOYBEAN    CULTIVAR :UY0141-GM 4 UY            ECOTYPE :SB0401                 
 CSDVAR :13.39  PPSEN  : 0.29  EMG-FLW:21.50  FLW-FSD:18.00  FSD-PHM : 32.00    
 WTPSD  :0.190  SDPDVR : 2.20  SDFDUR :23.00  PODDUR :10.00  XFRUIT  :  1.00    
                                                                                
                                                                                
                                                                                
                                                                                
*SIMULATED CROP AND SOIL STATUS AT MAIN DEVELOPMENT STAGES

 RUN NO.    14     UYSB                    

        CROP GROWTH   BIOMASS         LEAF   CROP N     STRESS  
   DATE  AGE STAGE      kg/ha    LAI   NUM  kg/ha  %   H2O    N 
 ------  --- ---------- -----  -----  ----  ---  ---  ----  ----
 26 AUG    0 Start Sim      0   0.00   0.0    0  0.0  0.00  0.00
 29 AUG    0 Sowing         0   0.00   0.0    0  0.0  0.00  0.00
  7 SEP    9 Emergence      4   0.01   0.1    0  5.2  0.00  0.00
  7 SEP    9 End Juven.     4   0.01   0.1    0  5.2  0.00  0.00
 19 SEP   21 Flower Ind     7   0.01   1.0    0  4.9  0.00  0.00
 20 SEP   22 Unifoliate     8   0.01   1.1    0  5.0  0.00  0.00
  3 NOV   66 First Flwr   390   0.61   7.4   17  4.3  0.00  0.00
 15 NOV   78 First Pod   1244   1.51   9.8   51  4.1  0.00  0.00
  4 DEC   97 First Seed  3845   2.07  13.9  112  2.9  0.00  0.06
 15 DEC  108 End Leaf    5128   1.98  16.3  152  3.0  0.00  0.00
 19 DEC  112 End Msnode  5388   1.92  17.3  162  3.0  0.00  0.00
 22 DEC  115 End Pod     5577   1.87  17.3  171  3.1  0.00  0.00
 22 JAN  146 Phys. Mat   7188   1.36  17.3  269  3.7  0.00  0.01
  3 FEB  158 Harv. Mat   6199   0.09  17.3  251  4.0  0.00  0.02
  3 FEB  158 Harvest     6199   0.09  17.3  251  4.0  0.00  0.00


*MAIN GROWTH AND DEVELOPMENT VARIABLES

@     VARIABLE                          SIMULATED     MEASURED
      --------                          ---------     --------
      Anthesis day (dap)                       66          -99
      First pod day (dap)                      78          -99
      First seed day (dap)                     97          -99
      Physiological maturity day (dap)        146          -99
      Yield at harvest maturity (kg [dm]/    3368          -99
      Pod/Ear/Panicle weight at maturity     5039          -99
      Number at maturity (no/m2)             2272          -99
      Unit wt at maturity (g [dm]/unit)    0.1483          -99
      Number at maturity (no/unit)           2.20          -99
      Tops weight at maturity (kg [dm]/ha    6199          -99
      By-product produced (stalk) at matu    2830          -99
      Leaf area index, maximum               2.08          -99
      Harvest index at maturity             0.543          -99
      Threshing % at maturity               66.85          -99
      Grain N at maturity (kg/ha)             218          -99
      Tops N at maturity (kg/ha)              251          -99
      Stem N at maturity (kg/ha)                8          -99
      Grain N at maturity (%)                6.47          -99
      Tops weight at anthesis (kg [dm]/ha     390          -99
      Tops N at anthesis (kg/ha)               17          -99
      Leaf number per stem at maturity      17.28          -99
      Grain oil at maturity (%)             20.55          -99
      Canopy height (m)                      0.83          -99
      Harvest maturity day (dap)              158          -99


*ENVIRONMENTAL AND STRESS FACTORS

 |-----Development Phase------|-------------Environment--------------|---------Stress----------|
                              |--------Average-------|---Cumulative--|  (0=Min, 1=Max Stress)  |
                         Time  Temp  Temp Solar Photop         Evapo |----Water---|--Nitrogen--|
                         Span   Max   Min   Rad  [day]   Rain  Trans  Photo         Photo
                         days    øC    øC MJ/m2     hr     mm     mm  synth Growth  synth Growth
------------------------------------------------------------------------------------------------
 Emergence -First Flower   57  22.2  10.9  16.8  12.46  429.6  105.1  0.000  0.000  0.000  0.000
 First Flower-First Seed   31  25.9  15.6  23.2  13.69  204.6  156.5  0.000  0.000  0.000  0.038
 First Seed - Phys. Mat.   49  31.8  18.3  25.6  13.99  110.6  304.3  0.000  0.000  0.091  0.006
 Emergence  - Phys. Mat.  137  26.5  14.6  21.4  13.28  744.8  565.9  0.000  0.000  0.014  0.011

                   Soybean YIELD :     3368 kg/ha    [Dry weight] 

************************************************************************************************

*DSSAT Cropping System Model Ver. 4.0.2.000               Aug 29, 2016; 09:16:37
                                                                                
*RUN  15        : UYSB                                                          
 MODEL          : CRGRO040 - SOYBEAN                                            
 EXPERIMENT     : UYSB0405 SN late to create DSS                                
 TREATMENT  1   : UYSB                                                          
                                                                                
 CROP           : SOYBEAN        CULTIVAR : GM 4 UY          ECOTYPE :SB0401    
 STARTING DATE  : AUG 25 2000                                                   
 PLANTING DATE  : AUG 28 2000    PLANTS/m2 :  7.0     ROW SPACING :  15.cm      
 WEATHER        : UYTA   2000                                                   
 SOIL           : UYSS0N2002     TEXTURE :       -  N20-02    SNIA CLAY RISS    
 SOIL INITIAL C : DEPTH:125cm EXTR. H2O:186.3mm  NO3: 74.8kg/ha  NH4: 23.9kg/ha 
 WATER BALANCE  : AUTOMATIC IRRIGATION - REFILL PROFILE                         
 IRRIGATION     : AUTOMATIC - PLANTING -> MATURITY [ SOIL DEPTH:30.00m 50.%]    
 NITROGEN BAL.  : SOIL-N, N-UPTAKE & DYNAMIC N-FIXATION SIMULATION              
 N-FERTILIZER   : NO N-FERTILIZER APPLIED                                       
 RESIDUE/MANURE : INITIAL :     0 kg/ha ;       0 kg/ha IN     0 APPLICATIONS   
 ENVIRONM. OPT. : DAYL=    0.00  SRAD=    0.00  TMAX=    0.00  TMIN=    0.00    
                  RAIN=    0.00  CO2 = R330.00  DEW =    0.00  WIND=    0.00    
 SIMULATION OPT : WATER   :Y  NITROGEN:Y  N-FIX:Y  PHOSPH :N  PESTS  :N         
                  PHOTO   :C  ET      :R  INFIL:S  HYDROL :R  SOM    :G         
 MANAGEMENT OPT : PLANTING:R  IRRIG   :A  FERT :N  RESIDUE:N  HARVEST:M  WTH:M  
                                                                                
*SUMMARY OF SOIL AND GENETIC INPUT PARAMETERS                                   
                                                                                
   SOIL LOWER UPPER   SAT  EXTR  INIT   ROOT   BULK     pH    NO3    NH4    ORG 
  DEPTH LIMIT LIMIT    SW    SW    SW   DIST   DENS                          C  
   cm   cm3/cm3    cm3/cm3    cm3/cm3         g/cm3         ugN/g  ugN/g     %  
------------------------------------------------------------------------------- 
  0-  5 0.331 0.542 0.585 0.211 0.394   1.00   1.11   6.50  15.00   1.50   2.74 
  5- 15 0.331 0.542 0.585 0.211 0.394   1.00   1.11   6.50  15.00   1.50   2.74 
 15- 30 0.331 0.542 0.585 0.211 0.394   1.00   1.11   6.50  15.00   1.50   2.74 
 30- 45 0.290 0.438 0.491 0.148 0.334   0.43   1.26   6.50   8.50   1.50   1.07 
 45- 60 0.292 0.431 0.480 0.138 0.375   0.39   1.29   6.27   4.53   1.50   0.90 
 60- 90 0.293 0.419 0.466 0.126 0.419   0.32   1.34   6.00   0.00   1.50   0.64 
 90-108 0.286 0.408 0.460 0.122 0.408   0.23   1.36   6.00   0.00   1.50   0.35 
108-125 0.276 0.395 0.456 0.119 0.395   0.12   1.38   6.00   0.00   1.50   0.14 
                                                                                
TOT-125  37.3  55.9  62.1  18.6  49.1  <--cm   -  kg/ha-->   74.8   23.9 166127 
SOIL ALBEDO    : 0.09      EVAPORATION LIMIT : 6.00         MIN. FACTOR  : 1.00 
RUNOFF CURVE # :10.00      DRAINAGE RATE     : 0.40         FERT. FACTOR : 1.00 
                                                                                
 SOYBEAN    CULTIVAR :UY0141-GM 4 UY            ECOTYPE :SB0401                 
 CSDVAR :13.39  PPSEN  : 0.29  EMG-FLW:21.50  FLW-FSD:18.00  FSD-PHM : 32.00    
 WTPSD  :0.190  SDPDVR : 2.20  SDFDUR :23.00  PODDUR :10.00  XFRUIT  :  1.00    
                                                                                
                                                                                
                                                                                
                                                                                
*SIMULATED CROP AND SOIL STATUS AT MAIN DEVELOPMENT STAGES

 RUN NO.    15     UYSB                    

        CROP GROWTH   BIOMASS         LEAF   CROP N     STRESS  
   DATE  AGE STAGE      kg/ha    LAI   NUM  kg/ha  %   H2O    N 
 ------  --- ---------- -----  -----  ----  ---  ---  ----  ----
 26 AUG    0 Start Sim      0   0.00   0.0    0  0.0  0.00  0.00
 29 AUG    0 Sowing         0   0.00   0.0    0  0.0  0.00  0.00
  8 SEP   10 Emergence      4   0.01   0.0    0  5.1  0.00  0.00
  8 SEP   10 End Juven.     4   0.01   0.0    0  5.1  0.00  0.00
 25 SEP   27 Unifoliate    10   0.02   1.1    0  4.9  0.00  0.00
 25 SEP   27 Flower Ind    10   0.02   1.1    0  4.9  0.00  0.00
 29 OCT   61 First Flwr   277   0.47   7.0   12  4.3  0.00  0.00
 10 NOV   73 First Pod    856   1.11   9.3   35  4.1  0.00  0.00
 29 NOV   92 First Seed  3098   1.64  13.3   94  3.0  0.00  0.07
 10 DEC  103 End Leaf    4139   1.52  15.8  108  2.6  0.00  0.11
 13 DEC  106 End Msnode  4347   1.49  16.5  116  2.7  0.00  0.00
 16 DEC  109 End Pod     4527   1.45  16.5  122  2.7  0.00  0.00
 17 JAN  141 Phys. Mat   5802   1.05  16.5  217  3.7  0.00  0.01
 29 JAN  153 Harv. Mat   5165   0.07  16.5  207  4.0  0.00  0.05
 29 JAN  153 Harvest     5165   0.07  16.5  207  4.0  0.00  0.00


*MAIN GROWTH AND DEVELOPMENT VARIABLES

@     VARIABLE                          SIMULATED     MEASURED
      --------                          ---------     --------
      Anthesis day (dap)                       61          -99
      First pod day (dap)                      73          -99
      First seed day (dap)                     92          -99
      Physiological maturity day (dap)        141          -99
      Yield at harvest maturity (kg [dm]/    2957          -99
      Pod/Ear/Panicle weight at maturity     4318          -99
      Number at maturity (no/m2)             1856          -99
      Unit wt at maturity (g [dm]/unit)    0.1593          -99
      Number at maturity (no/unit)           2.20          -99
      Tops weight at maturity (kg [dm]/ha    5165          -99
      By-product produced (stalk) at matu    2210          -99
      Leaf area index, maximum               1.67          -99
      Harvest index at maturity             0.573          -99
      Threshing % at maturity               68.48          -99
      Grain N at maturity (kg/ha)             183          -99
      Tops N at maturity (kg/ha)              207          -99
      Stem N at maturity (kg/ha)                5          -99
      Grain N at maturity (%)                6.20          -99
      Tops weight at anthesis (kg [dm]/ha     277          -99
      Tops N at anthesis (kg/ha)               12          -99
      Leaf number per stem at maturity      16.46          -99
      Grain oil at maturity (%)             20.62          -99
      Canopy height (m)                      0.82          -99
      Harvest maturity day (dap)              153          -99


*ENVIRONMENTAL AND STRESS FACTORS

 |-----Development Phase------|-------------Environment--------------|---------Stress----------|
                              |--------Average-------|---Cumulative--|  (0=Min, 1=Max Stress)  |
                         Time  Temp  Temp Solar Photop         Evapo |----Water---|--Nitrogen--|
                         Span   Max   Min   Rad  [day]   Rain  Trans  Photo         Photo
                         days    øC    øC MJ/m2     hr     mm     mm  synth Growth  synth Growth
------------------------------------------------------------------------------------------------
 Emergence -First Flower   51  22.3  12.1  16.3  12.40  305.0  115.4  0.000  0.000  0.000  0.000
 First Flower-First Seed   31  26.0  14.9  21.1  13.58  200.9  134.6  0.000  0.000  0.000  0.044
 First Seed - Phys. Mat.   49  27.7  18.9  21.7  14.00  304.6  240.7  0.000  0.000  0.074  0.034
 Emergence  - Phys. Mat.  131  25.2  15.3  19.4  13.28  810.5  490.8  0.000  0.000  0.010  0.023

                   Soybean YIELD :     2957 kg/ha    [Dry weight] 

************************************************************************************************
