*PLANT C OUTPUT FILE

*DSSAT Cropping System Model Ver. 4.6.1.000 -release      OCT 27, 2016; 10:38:10
                                                                                
*RUN   1        : UYSB                      CRGRO046 UYSB1005    1              
 MODEL          : CRGRO046 - Soybean                                            
 EXPERIMENT     : UYSB1005 SN late to create DSS                                
 DATA PATH      :                                                               
 TREATMENT  1   : UYSB                      CRGRO046                            
  
@YEAR DOY   DAS   DAP   TWAD    PHAD    CMAD    CGRD    GRAD    MRAD    CHAD   CL%D   CS%D   TGNN   TGAV    GN%D    GL%D    GC%D
 2000 301     4     0      0  0.0000  0.0000  0.0000  0.0000  0.0000 0.00000  0.000  0.000 22.996 18.600  0.0000  0.0000  0.0000
 2000 302     5     1      0  0.0000  0.0000  0.0000  0.0000  0.0000 0.00000  0.000  0.000 18.506 14.610  0.0000  0.0000  0.0000
 2000 303     6     2      0  0.0000  0.0000  0.0000  0.0000  0.0000 0.00000  0.000  0.000 16.370 12.616  0.0000  0.0000  0.0000
 2000 304     7     3      0  0.0000  0.0000  0.0000  0.0000  0.0000 0.00000  0.000  0.000 24.543 18.250  0.0000  0.0000  0.0000
 2000 305     8     4      0  0.0000  0.0000  0.0000  0.0000  0.0000 0.00000  0.000  0.000 24.543 19.465  0.0000  0.0000  0.0000
 2000 306     9     5      0  0.0000  0.0000  0.0000  0.0000  0.0000 0.00000  0.000  0.000 23.242 19.629  0.0000  0.0000  0.0000
 2000 307    10     6      0  0.0000  0.0000  0.0000  0.0000  0.0000 0.00000  0.000  0.000 21.248 18.135  0.0000  0.0000  0.0000
 2000 308    11     7      8  0.0000  0.0004  0.0002  0.0001  0.0000 0.00000  3.959  7.914 21.391 16.382  0.0000  0.0000  0.0000
 2000 309    12     8      8  0.1175  0.0004  0.0745  0.0249  0.0063 0.00000  3.924  7.847 20.369 16.289  0.0000  0.0000  0.0000
 2000 310    13     9      9  0.1784  0.0004  0.1144  0.0366  0.0095 0.00000  3.891  7.790 22.002 17.243  0.0000  0.0000  0.0000
 2000 311    14    10     11  0.2067  0.0006  0.1328  0.0419  0.0128 0.00000  3.852  7.731 23.235 19.048  0.0000  0.0000  0.0000
 2000 312    15    11     12  0.1379  0.0006  0.0877  0.0278  0.0103 0.00000  3.809  7.658 22.380 19.301  0.0000  0.0000  0.0000
 2000 313    16    12     13  0.1975  0.0008  0.1262  0.0391  0.0153 0.00000  3.764  7.595 23.868 21.004  0.0000  0.0000  0.0000
 2000 314    17    13     13  0.1167  0.0007  0.0739  0.0241  0.0093 0.00000  3.726  7.529 20.093 18.554  0.0000  0.0000  0.0000
 2000 315    18    14     15  0.2679  0.0007  0.1747  0.0549  0.0161 0.00000  3.698  7.515 22.049 18.612  0.0000  0.0000  0.0000
 2000 316    19    15     17  0.3051  0.0009  0.1988  0.0608  0.0208 0.00000  3.668  7.495 24.014 19.968  0.0000  0.0000  0.0000
 2000 317    20    16     19  0.3229  0.0011  0.2079  0.0625  0.0251 0.00000  3.630  7.461 24.582 21.466  0.0000  0.0000  0.0000
 2000 318    21    17     21  0.2608  0.0009  0.1707  0.0517  0.0154 0.00000  3.609  7.441 20.315 17.020  0.0000  0.0000  0.0000
 2000 319    22    18     22  0.1797  0.0005  0.1069  0.0477  0.0075 0.00000  3.635  7.416 14.872 11.971  0.0000  0.0000  0.0000
 2000 320    23    19     23  0.1718  0.0004  0.1035  0.0447  0.0069 0.00000  3.654  7.398 14.988 10.833  0.0000  0.0000  0.0000
 2000 321    24    20     25  0.3448  0.0008  0.2153  0.0812  0.0162 0.00000  3.667  7.390 20.254 14.451  0.0000  0.0000  0.0000
 2000 322    25    21     28  0.4861  0.0012  0.3041  0.1100  0.0281 0.00000  3.670  7.384 23.490 17.508  0.0000  0.0000  0.0000
 2000 323    26    22     31  0.6043  0.0015  0.3790  0.1324  0.0390 0.00000  3.666  7.386 25.430 19.017  0.0000  0.0000  0.0000
 2000 324    27    23     35  0.6687  0.0020  0.4163  0.1433  0.0513 0.00000  3.650  7.377 27.187 21.168  0.0000  0.0000  0.0000
 2000 325    28    24     39  0.5915  0.0015  0.3781  0.1334  0.0298 0.00000  3.647  7.387 19.830 15.996  0.0000  0.0000  0.0000
 2000 326    29    25     44  0.7867  0.0019  0.4957  0.1783  0.0465 0.00000  3.648  7.396 24.001 17.730  0.0000  0.0000  0.0000
 2000 327    30    26     49  0.8341  0.0029  0.5127  0.1867  0.0669 0.00000  3.632  7.369 26.367 21.565  0.0000  0.0000  0.0000
 2000 328    31    27     55  0.9953  0.0037  0.6239  0.2059  0.0980 0.00000  3.638  7.344 30.129 24.431  0.0000  0.0000  0.0000
 2000 329    32    28     59  0.6776  0.0025  0.4204  0.1522  0.0404 0.00000  3.623  7.333 19.478 16.790  0.0000  0.0000  0.0000
 2000 330    33    29     65  1.0581  0.0025  0.6801  0.2263  0.0545 0.00000  3.620  7.368 21.400 16.132  0.0000  0.0000  0.0000
 2000 331    34    30     74  1.4429  0.0040  0.9069  0.3041  0.1008 0.00000  3.611  7.382 25.795 20.240  0.0000  0.0000  0.0000
 2000 332    35    31     80  0.9514  0.0049  0.5785  0.2045  0.0847 0.00000  3.589  7.331 25.824 21.129  0.0000  0.0000  0.0000
 2000 333    36    32     84  0.7254  0.0046  0.4441  0.1508  0.0620 0.00000  3.565  7.282 20.672 19.274  0.0000  0.0000  0.0000
 2000 334    37    33     90  1.0309  0.0038  0.6488  0.2181  0.0616 0.00000  3.560  7.279 19.824 16.706  0.0000  0.0000  0.0000
 2000 335    38    34    101  1.7078  0.0040  1.0921  0.3709  0.0875 0.00000  3.566  7.323 20.854 16.481  0.0000  0.0000  0.0000
 2000 336    39    35    112  1.7738  0.0045  1.1375  0.3839  0.0947 0.00000  3.565  7.354 21.779 16.402  0.0000  0.0000  0.0000
 2000 337    40    36    127  2.4778  0.0067  1.5656  0.5350  0.1636 0.00000  3.564  7.377 25.114 19.558  0.0000  0.0000  0.0000
 2000 338    41    37    140  2.1863  0.0081  1.3654  0.4746  0.1630 0.00000  3.553  7.362 25.557 20.109  0.0000  0.0000  0.0000
 2000 339    42    38    149  1.5299  0.0076  0.9599  0.3308  0.1096 0.00000  3.536  7.332 20.807 18.154  0.0000  0.0000  0.0000
 2000 340    43    39    166  2.6694  0.0077  1.7041  0.5730  0.1533 0.00000  3.535  7.350 21.598 17.584  0.0000  0.0000  0.0000
 2000 341    44    40    186  3.2914  0.0112  2.0589  0.6828  0.2595 0.00000  3.525  7.352 27.782 21.043  0.0000  0.0000  0.0000
 2000 342    45    41    205  3.4649  0.0150  2.0496  0.7880  0.3342 0.00000  3.537  7.299 29.193 23.817  0.0000  0.0000  0.0000
 2000 343    46    42    225  3.5278  0.0176  2.0604  0.8019  0.3850 0.00000  3.535  7.238 30.375 25.214  0.0000  0.0000  0.0000
 2000 344    47    43    255  5.2203  0.0199  3.0694  1.1964  0.5346 0.00000  3.547  7.209 30.157 25.749  0.0000  0.0000  0.0000
 2000 345    48    44    287  5.5229  0.0201  3.3080  1.2866  0.4741 0.00000  3.557  7.195 27.592 23.005  0.0000  0.0000  0.0000
 2000 346    49    45    317  5.3161  0.0247  3.1391  1.2181  0.5332 0.00000  3.548  7.156 28.460 24.590  0.0000  0.0000  0.0000
 2000 347    50    46    359  7.2519  0.0258  4.3025  1.6659  0.6916 0.00000  3.554  7.152 30.301 24.389  0.0000  0.0000  0.0000
 2000 348    51    47    414  9.1793  0.0000  5.2635  1.5466  1.0105 0.62529  6.112  9.376 31.855 27.161  0.0000  0.0000  0.0000
 2000 349    52    48    460  9.3752  0.0502  4.3733  2.4855  0.9091 0.00734  5.707  9.090 28.362 25.030  0.0000  0.0000  0.0000
 2000 350    53    49    526 10.4821  0.0468  6.9341  2.1050  0.8635 0.04783  5.499  9.009 27.550 22.570  0.0000  0.0000  0.0000
 2000 351    54    50    579  9.9046  0.0295  4.9024  2.6944  0.4609 0.04994  5.310  9.027 19.597 15.548  0.0000  0.0000  0.0000
 2000 352    55    51    654 13.0066  0.0406  7.5339  3.0968  0.7267 0.10684  5.232  9.170 23.032 17.729  0.0000  0.0000  0.0000
 2000 353    56    52    748 16.3358  0.0612  9.6412  3.7319  1.2095 0.18546  5.204  9.430 27.073 21.340  0.0000  0.0000  0.0000
 2000 354    57    53    841 15.7164  0.0603  9.4185  3.6713  1.0043 0.22359  5.210  9.726 24.539 18.986  0.0000  0.0000  0.0000
 2000 355    58    54    951 18.7404  0.0802 11.0221  4.3305  1.3916 0.31743  5.247 10.097 26.820 20.944  0.0000  0.0000  0.0000
 2000 356    59    55    996  8.2723  0.0762  4.7722  1.9283  0.6649 0.15837  5.247 10.209 20.269 18.298  0.0000  0.0000  0.0000
 2000 357    60    56   1117 21.1674  0.1105 12.1525  4.4787  1.8057 0.47329  5.343 10.686 27.752 22.772  0.0000  0.0000  0.0000
 2000 358    61    57   1177 10.9044  0.0899  6.2441  2.5015  0.7928 0.27027  5.383 10.892 19.635 17.844  0.0000  0.0000  0.0000
 2000 359    62    58   1307 22.0705  0.1050 12.8616  4.6632  1.4378 0.61781  5.522 11.431 24.278 18.832  0.0000  0.0000  0.0000
 2000 360    63    59   1442 24.5851  0.1796 13.4922  4.8310  2.5983 0.73639  5.652 11.926 29.750 25.307  0.0000  0.0000  0.0000
 2000 361    64    60   1589 27.3087  0.2202 15.0052  5.5740  3.4798 0.91566  5.816 12.465 33.183 28.023  0.0000  0.0000  0.0000
 2000 362    65    61   1651 13.4298  0.2128  7.2921  2.7451  1.6310 0.49141  5.850 12.637 26.735 22.793  0.0000  0.0000  0.0000
 2000 363    66    62   1763 20.9975  0.2005 11.3731  4.3756  1.8470 0.84707  5.983 13.070 24.681 21.133  0.0000  0.0000  0.0000
 2000 364    67    63   1871 20.5266  0.2039 11.0848  4.4574  1.6923 0.88909  6.118 13.489 22.847 20.016  0.0000  0.0000  0.0000
 2000 365    68    64   2047 31.6485  0.2307 17.2272  6.5952  2.3861 1.46242  6.345 14.173 24.639 20.446  0.0000  0.0000  0.0000
 2000 366    69    65   2224 33.2984  0.3069 17.5586  6.8927  3.0846 1.58159  6.551 14.778 27.597 22.759  0.0000  0.0000  0.0000
 2001 001    70    66   2408 34.7458  0.3578 18.2263  7.4335  3.4007 1.74179  6.752 15.355 28.110 23.308  0.0000  0.0000  0.0000
 2001 002    71    67   2591 35.4486  0.3999 18.1500  7.9284  3.5272 1.81871  6.940 15.880 28.155 23.209  0.0000  0.0000  0.0000
 2001 003    72    68   2784 36.2595  0.4551 20.1861  7.1609  4.0381 2.12823  7.203 16.471 30.266 24.280  0.0000  0.0000  0.0000
 2001 004    73    69   2922 29.6776  0.5960 13.1662  6.8920  4.5274 1.36692  7.208 16.627 31.600 27.585  0.0000  0.0000  0.0000
 2001 005    74    70   3113 37.7769  0.6084 20.6751  7.2064  4.9396 2.37993  7.476 17.184 30.645 26.487  0.0000  0.0000  0.0000
 2001 006    75    71   3309 37.6490  0.6833 19.7960  7.2634  5.4172 2.33250  7.641 17.620 32.069 27.444  0.0000  0.0000  0.0000
 2001 007    76    72   3407 21.9925  0.7127 12.6088  3.7282  3.5092 1.28865  7.712 17.734 27.446 24.901  0.0000  0.0000  0.0000
 2001 008    77    73   3577 32.0352  0.6674 17.7913  6.1125  3.7929 2.04693  7.865 18.089 26.974 23.174  0.0000  0.0000  0.0000
 2001 009    78    74   3788 37.0379  0.0000 19.5882  5.5452  4.4055 3.86699  8.422 19.498 28.216 23.735  0.0000  0.0000  0.0000
 2001 010    79    75   3855 17.0590  0.0000  8.8599  2.7917  2.2379 1.22208  8.644 19.995 21.809 19.444  0.0000  0.0000  0.0000
 2001 011    80    76   4052 34.9642  0.5678 19.7150  6.6986  2.6921 2.37159  8.808 20.375 21.303 17.862  0.0000  0.0000  0.0000
 2001 012    81    77   4244 34.4694  0.5523 18.2281  7.3944  2.5809 2.21130  8.915 20.682 21.832 16.886  0.0000  0.0000  0.0000
 2001 013    82    78   4451 36.0248  0.7959 21.0514  6.6126  3.6954 2.59073  9.068 21.013 25.634 20.437  0.0000  0.0000  0.0000
 2001 014    83    79   4601 30.0412  0.0000 13.6304  4.1421  4.9652 4.50323  9.707 22.612 28.955 25.407  0.0000  0.0000  0.0000
 2001 015    84    80   4785 37.9483  1.2104 19.9897  7.3453  5.2379 2.16269  9.762 22.679 27.252 24.493  0.0000  0.0000  0.0000
 2001 016    85    81   4951 36.0724  1.2609 17.0200  7.9239  5.4167 1.46415  9.687 22.565 28.523 24.904  0.0000  0.0000  0.0000
 2001 017    86    82   5057 27.8015  1.1600 15.4878  5.1487  4.3542 0.94972  9.698 22.473 25.626 23.333  0.0000  0.0000  0.0000
 2001 018    87    83   5150 24.6895  0.0000 11.7499  3.8505  4.1762 2.29569 10.084 23.348 24.521 23.267  6.3065 20.4889 31.5953
 2001 019    88    84   5244 27.4902  1.2944 14.6298  5.8965  4.1050 0.31036 10.023 23.082 25.248 22.238  6.2603 20.3951 31.9782
 2001 020    89    85   5429 40.8716  1.1472 21.4542  8.8956  4.1531 2.10393 10.094 23.201 24.193 20.000  6.2194 19.9549 32.6737
 2001 021    90    86   5623 40.9502  1.1680 22.9194  8.2766  4.0843 2.44175 10.222 23.410 24.386 19.406  6.2037 19.6222 33.1049
 2001 022    91    87   5702 26.2447  1.4170 14.2968  5.8875  4.1182 0.00000 10.116 23.062 26.265 21.500  6.2039 19.8193 32.9063
 2001 023    92    88   5903 40.9003  0.0000 14.3111  5.2266  6.076211.04007 11.545 26.766 28.757 24.243  6.2659 20.0448 32.2932
 2001 024    93    89   6072 39.0700  0.0000 14.4690  5.2125  6.1952 9.24560 12.723 29.681 29.996 24.300  6.3021 20.1714 31.9402
 2001 025    94    90   6242 38.5340  0.0000 13.3992  4.6456  6.9575 9.96112 13.956 32.634 30.549 26.036  6.3672 20.2577 31.4475
 2001 026    95    91   6269 33.7947  2.7369 16.7457  7.9294  7.1176 0.00000 13.764 32.060 31.575 26.883  6.4267 20.3138 31.0190
 2001 027    96    92   6292 19.9779  2.5029 11.5198  4.4112  4.6378 0.00000 13.614 31.542 24.955 23.559  6.4006 20.3643 31.1320
 2001 028    97    93   6307 16.4013  2.0884  9.7019  3.8994  3.3304 0.00000 13.504 31.111 21.166 20.056  6.3488 20.1703 31.6495
 2001 029    98    94   6440 38.1331  2.0321 20.6489  9.6020  4.3940 0.00000 13.405 30.690 24.837 19.573  6.3169 19.9968 32.0223
 2001 030    99    95   6550 38.6863  2.2152 20.8455  9.6282  4.9409 0.00000 13.287 30.222 24.894 21.063  6.2946 19.9965 32.1621
 2001 031   100    96   6647 36.7012  2.2465 20.0092  8.4551  6.3162 0.08418 13.180 29.770 28.750 24.311  6.3122 20.0827 31.9662
 2001 032   101    97   6701 30.1482  2.0616 16.1627  6.6898  6.3895 0.18112 13.110 29.391 28.870 25.505  6.3437 20.1518 31.6999
 2001 033   102    98   6828 37.5831  0.0000 14.5547  6.0370  7.5146 6.44314 14.033 31.471 30.726 26.502  6.3821 20.2060 31.4057
 2001 034   103    99   6917 35.5316  2.4836 18.6621  9.5535  5.0627 0.00000 13.899 30.939 24.491 21.448  6.3540 20.1947 31.5926
 2001 035   104   100   7018 37.3551  2.4499 19.6983  9.8220  5.3131 0.00000 13.763 30.404 26.531 21.342  6.3323 20.1812 31.7422
 2001 036   105   101   7138 36.5227  0.0000 17.9178  8.2740  5.9274 1.02731 14.076 30.825 26.241 23.092  6.3269 20.2219 31.7353
 2001 037   106   102   7256 36.5546  0.0000 15.1823  6.9443  6.5420 4.89000 14.846 32.431 29.390 23.880  6.3308 20.2561 31.6765
 2001 038   107   103   7388 36.1690  0.0000 12.9638  5.9682  8.2614 6.59352 15.826 34.497 32.285 27.276  6.3592 20.3045 31.4506
 2001 039   108   104   7402 21.2870  3.3206 12.1035  5.4106  6.0367 0.01019 15.648 33.802 28.514 25.080  6.3731 20.3177 31.3507
 2001 040   109   105   7466 31.0399  2.0376 15.4175  7.5160  7.3311 0.39797 15.685 33.531 30.604 26.169  6.3788 20.3692 31.2632
 2001 041   110   106   7465 18.4513  3.3497 10.6448  4.1340  6.4637 0.00427 15.496 32.789 29.891 26.422  6.3949 20.3765 31.1553
 2001 042   111   107   7490 28.1727  3.0843 14.1359  7.2149  7.6851 0.06563 15.338 32.108 31.551 27.261  6.4336 20.3557 30.9343
 2001 043   112   108   7555 25.3719  2.4454 14.1957  7.1805  4.0903 0.03452 15.217 31.550 23.079 19.362  6.4204 20.2388 31.1334
 2001 044   113   109   7648 31.5842  2.5275 16.7239  9.2414  4.9358 0.03137 15.076 30.950 25.658 20.440  6.4054 20.1808 31.2853
 2001 045   114   110   7736 30.9691  2.7875 16.1477  8.4925  5.7801 0.00000 14.888 30.248 26.919 22.596  6.3749 20.2386 31.4184
 2001 046   115   111   7810 27.8468  2.7710 14.5709  6.9275  5.7208 0.00000 14.685 29.525 26.750 22.998  6.3113 20.3727 31.6814
 2001 047   116   112   7903 30.6146  2.5934 15.8763  7.7994  5.3217 0.00000 14.482 28.827 26.078 21.684  6.2311 20.5137 32.0416
 2001 048   117   113   7981 28.0966  2.6003 14.3848  7.1164  5.5074 0.00000 14.259 28.102 27.097 22.526  6.1802 20.6153 32.2582
 2001 049   118   114   8038 25.6161  2.7513 12.4978  6.5472  6.6423 0.00000 13.998 27.306 29.504 25.684  6.1818 20.6392 32.2243
 2001 050   119   115   8098 26.0158  2.6550 12.4497  6.5141  6.6516 0.00000 13.725 26.511 30.059 25.668  6.1698 20.6884 32.2502
 2001 051   120   116   8168 26.8949  2.2768 12.5712  7.5073  6.2123 0.07480 13.502 25.843 29.318 24.606  6.1907 20.6600 32.1482
 2001 052   121   117   8212 20.1399  2.3054  9.8582  5.3978  5.2947 0.04383 13.247 25.130 27.168 23.778  6.2015 20.6433 32.0973
 2001 053   122   118   8269 25.4009  2.2430 11.1028  6.7338  7.0755 0.08938 12.994 24.437 30.882 27.065  6.2282 20.6158 31.9581
 2001 054   123   119   8319 22.0280  2.1065  9.9473  5.9735  5.8378 0.08078 12.740 23.766 28.970 24.904  6.2446 20.5925 31.8786
 2001 055   124   120   8320 12.5068  2.1903  6.0959  2.9448  4.8240 0.02866 12.439 23.022 27.607 24.113  6.2505 20.5839 31.8506
 2001 056   125   121   8327 10.3823  2.1201  5.3216  2.3658  4.2081 0.00850 12.125 22.272 25.762 22.874  6.2519 20.5799 31.8459
 2001 057   126   122   8341 12.4803  2.1531  5.9600  2.7258  4.8177 0.00660 11.788 21.488 26.649 24.439  6.2554 20.5769 31.8269
 2001 058   127   123   8366 15.7469  2.0106  6.8498  3.6979  5.4703 0.04253 11.467 20.755 28.537 25.616  6.2652 20.5658 31.7768
 2001 059   128   124   8411 18.8207  2.0431  8.6654  3.7769  5.6507 0.00000 11.112 19.970 29.262 25.486  6.2086 20.6928 32.0032
 2001 060   129   125   8217 17.0198  1.5041  7.2438  2.7098  6.1735 0.14699 10.771 18.959 31.630 27.108  6.1544 20.8189 32.2160
 2001 061   130   126   8033  8.9644  1.6342  4.1007  1.6048  4.0360 0.00000 10.311 17.829 25.650 23.479  6.1376 20.8538 32.2859
 2001 062   131   127   7901 11.4060  1.4870  4.4156  2.1223  5.0639 0.00000  9.838 16.771 30.609 26.303  6.1281 20.8801 32.3194
 2001 063   132   128   7792  9.3902  1.3112  3.3396  1.4281  4.9290 0.00000  9.379 15.807 31.345 26.684  6.1256 20.8908 32.3244
 2001 064   133   129   7688  6.0976  1.1685  1.8158  0.7369  4.6266 0.00000  8.935 14.924 31.606 26.875  6.1280 20.8889 32.3111
 2001 065   134   130   7603  4.5678  1.0244  1.3871  0.4543  3.7259 0.00000  8.518 14.130 27.998 24.621  6.1291 20.8874 32.3057
 2001 066   135   131   7535  3.8300  0.8935  1.1653  0.3618  3.1913 0.00000  8.131 13.421 26.566 22.905  6.1296 20.8861 32.3041
 2001 067   136   132   7475  2.3594  0.7776  0.3575  0.1025  2.6903 0.00000  7.764 12.790 25.918 21.050  6.1296 20.8852 32.3046
 2001 068   137   133   7422  1.8561  0.7597  0.0000  0.0000  3.0450 0.00000  7.384 12.175 27.025 23.082  6.1296 20.8852 32.3046
 2001 069   138   134   7377  1.6319  0.7404  0.0000  0.0000  3.6429 0.00000  7.003 11.576 29.906 25.716  6.1296 20.8852 32.3046
 2001 070   139   135   7338  1.0572  0.6803  0.0000  0.0000  3.2195 0.00000  6.645 11.021 27.430 24.413  6.1296 20.8852 32.3046
 2001 071   140   136   7306  1.1041  0.6127  0.0000  0.0000  2.8666 0.00000  6.317 10.518 26.331 22.889  6.1296 20.8852 32.3046

*DSSAT Cropping System Model Ver. 4.6.1.000 -release      OCT 27, 2016; 10:38:10
                                                                                
*RUN   2        : UYSB                      CRGRO046 UYSB1005    1              
 MODEL          : CRGRO046 - Soybean                                            
 EXPERIMENT     : UYSB1005 SN late to create DSS                                
 DATA PATH      :                                                               
 TREATMENT  1   : UYSB                      CRGRO046                            
  
@YEAR DOY   DAS   DAP   TWAD    PHAD    CMAD    CGRD    GRAD    MRAD    CHAD   CL%D   CS%D   TGNN   TGAV    GN%D    GL%D    GC%D
 2001 301     4     0      0  0.0000  0.0000  0.0000  0.0000  0.0000 0.00000  0.000  0.000 22.667 20.880  0.0000  0.0000  0.0000
 2001 302     5     1      0  0.0000  0.0000  0.0000  0.0000  0.0000 0.00000  0.000  0.000 22.952 20.879  0.0000  0.0000  0.0000
 2001 303     6     2      0  0.0000  0.0000  0.0000  0.0000  0.0000 0.00000  0.000  0.000 20.378 17.625  0.0000  0.0000  0.0000
 2001 304     7     3      0  0.0000  0.0000  0.0000  0.0000  0.0000 0.00000  0.000  0.000 20.718 17.071  0.0000  0.0000  0.0000
 2001 305     8     4      0  0.0000  0.0000  0.0000  0.0000  0.0000 0.00000  0.000  0.000 22.030 17.166  0.0000  0.0000  0.0000
 2001 306     9     5      0  0.0000  0.0000  0.0000  0.0000  0.0000 0.00000  0.000  0.000 20.184 16.428  0.0000  0.0000  0.0000
 2001 307    10     6      0  0.0000  0.0000  0.0000  0.0000  0.0000 0.00000  0.000  0.000 20.729 16.329  0.0000  0.0000  0.0000
 2001 308    11     7      8  0.0000  0.0004  0.0003  0.0001  0.0000 0.00000  3.954  7.904 22.006 17.534  0.0000  0.0000  0.0000
 2001 309    12     8      9  0.1842  0.0005  0.1158  0.0388  0.0129 0.00000  3.906  7.816 26.353 20.485  0.0000  0.0000  0.0000
 2001 310    13     9      9  0.1280  0.0006  0.0804  0.0265  0.0112 0.00000  3.854  7.716 25.216 21.745  0.0000  0.0000  0.0000
 2001 311    14    10     10  0.0747  0.0004  0.0463  0.0169  0.0052 0.00000  3.822  7.652 17.402 16.399  0.0000  0.0000  0.0000
 2001 312    15    11     11  0.1698  0.0005  0.1097  0.0353  0.0097 0.00000  3.792  7.615 20.523 17.551  0.0000  0.0000  0.0000
 2001 313    16    12     12  0.2089  0.0006  0.1467  0.0381  0.0125 0.00000  3.778  7.591 22.431 18.206  0.0000  0.0000  0.0000
 2001 314    17    13     13  0.1631  0.0008  0.1057  0.0306  0.0141 0.00000  3.737  7.523 24.143 21.207  0.0000  0.0000  0.0000
 2001 315    18    14     15  0.3273  0.0008  0.2081  0.0652  0.0203 0.00000  3.703  7.521 23.999 19.416  0.0000  0.0000  0.0000
 2001 316    19    15     18  0.3480  0.0010  0.2225  0.0666  0.0254 0.00000  3.667  7.499 25.963 21.022  0.0000  0.0000  0.0000
 2001 317    20    16     19  0.1898  0.0010  0.1202  0.0359  0.0158 0.00000  3.627  7.441 22.810 19.766  0.0000  0.0000  0.0000
 2001 318    21    17     21  0.3359  0.0012  0.2045  0.0738  0.0246 0.00000  3.628  7.389 23.253 20.567  0.0000  0.0000  0.0000
 2001 319    22    18     23  0.4615  0.0012  0.2863  0.1025  0.0291 0.00000  3.641  7.375 23.426 19.379  0.0000  0.0000  0.0000
 2001 320    23    19     26  0.3789  0.0009  0.2358  0.0890  0.0186 0.00000  3.654  7.363 18.819 15.774  0.0000  0.0000  0.0000
 2001 321    24    20     29  0.5164  0.0011  0.3283  0.1149  0.0266 0.00000  3.659  7.382 22.213 16.302  0.0000  0.0000  0.0000
 2001 322    25    21     33  0.6858  0.0017  0.4303  0.1492  0.0479 0.00000  3.651  7.392 26.580 20.310  0.0000  0.0000  0.0000
 2001 323    26    22     37  0.6838  0.0023  0.4209  0.1502  0.0573 0.00000  3.635  7.371 27.861 22.308  0.0000  0.0000  0.0000
 2001 324    27    23     42  0.8810  0.0027  0.5307  0.1984  0.0809 0.00000  3.631  7.353 30.191 23.920  0.0000  0.0000  0.0000
 2001 325    28    24     46  0.6769  0.0031  0.4129  0.1466  0.0637 0.00000  3.601  7.313 25.811 23.231  0.0000  0.0000  0.0000
 2001 326    29    25     52  1.0485  0.0034  0.6465  0.2245  0.0923 0.00000  3.583  7.321 27.927 23.556  0.0000  0.0000  0.0000
 2001 327    30    26     60  1.2885  0.0042  0.7760  0.2760  0.1333 0.00000  3.572  7.321 31.275 25.971  0.0000  0.0000  0.0000
 2001 328    31    27     63  0.5277  0.0027  0.3205  0.1282  0.0362 0.00000  3.567  7.282 19.217 16.637  0.0000  0.0000  0.0000
 2001 329    32    28     67  0.7590  0.0022  0.4725  0.1811  0.0377 0.00000  3.577  7.282 18.046 14.749  0.0000  0.0000  0.0000
 2001 330    33    29     71  0.6722  0.0035  0.4317  0.1434  0.0498 0.00000  3.577  7.252 19.715 18.174  0.0000  0.0000  0.0000
 2001 331    34    30     83  1.9408  0.0044  1.2180  0.4119  0.1239 0.00000  3.574  7.329 23.551 20.253  0.0000  0.0000  0.0000
 2001 332    35    31     95  1.9384  0.0043  1.2397  0.4095  0.1063 0.00000  3.577  7.379 22.041 17.919  0.0000  0.0000  0.0000
 2001 333    36    32    107  1.8865  0.0049  1.2311  0.3827  0.1047 0.00000  3.601  7.400 21.511 17.568  0.0000  0.0000  0.0000
 2001 334    37    33    111  0.7237  0.0042  0.4204  0.1739  0.0480 0.00000  3.590  7.357 16.605 15.028  0.0000  0.0000  0.0000
 2001 335    38    34    126  2.4479  0.0061  1.5521  0.5048  0.1424 0.00000  3.590  7.386 22.608 18.378  0.0000  0.0000  0.0000
 2001 336    39    35    143  2.7714  0.0076  1.7605  0.5547  0.1732 0.00000  3.584  7.405 23.616 19.135  0.0000  0.0000  0.0000
 2001 337    40    36    151  1.3494  0.0074  0.8453  0.2737  0.0959 0.00000  3.566  7.367 19.785 17.348  0.0000  0.0000  0.0000
 2001 338    41    37    161  1.5201  0.0085  0.9538  0.3076  0.1143 0.00000  3.543  7.333 21.185 18.209  0.0000  0.0000  0.0000
 2001 339    42    38    174  2.3054  0.0101  1.3992  0.5144  0.1680 0.00000  3.549  7.293 21.795 19.644  0.0000  0.0000  0.0000
 2001 340    43    39    195  3.5395  0.0115  2.1553  0.7915  0.2441 0.00000  3.569  7.281 23.626 20.221  0.0000  0.0000  0.0000
 2001 341    44    40    222  4.5454  0.0142  2.7492  1.0180  0.3436 0.00000  3.587  7.273 26.465 21.554  0.0000  0.0000  0.0000
 2001 342    45    41    244  3.5639  0.0092  2.2229  0.8462  0.1651 0.00000  3.603  7.284 17.910 15.258  0.0000  0.0000  0.0000
 2001 343    46    42    267  3.7868  0.0083  2.3699  0.9167  0.1624 0.00000  3.620  7.302 19.348 13.578  0.0000  0.0000  0.0000
 2001 344    47    43    301  5.5617  0.0148  3.4308  1.3305  0.3195 0.00000  3.632  7.309 22.784 17.910  0.0000  0.0000  0.0000
 2001 345    48    44    335  5.6590  0.0168  3.4855  1.3521  0.3366 0.00000  3.636  7.307 23.065 17.869  0.0000  0.0000  0.0000
 2001 346    49    45    373  6.5257  0.0263  3.9164  1.5178  0.5557 0.00000  3.624  7.274 27.360 22.415  0.0000  0.0000  0.0000
 2001 347    50    46    416  7.4093  0.0321  4.4198  1.7090  0.6778 0.00000  3.607  7.237 26.914 23.725  0.0000  0.0000  0.0000
 2001 348    51    47    470  9.3542  0.0342  5.6056  2.1666  0.7790 0.02173  3.636  7.334 25.774 23.015  0.0000  0.0000  0.0000
 2001 349    52    48    540 11.7001  0.0343  7.0726  2.7398  0.8137 0.06307  3.725  7.605 24.495 20.984  0.0000  0.0000  0.0000
 2001 350    53    49    614 12.2864  0.0374  7.4227  2.8815  0.8054 0.10118  3.836  7.941 24.117 19.853  0.0000  0.0000  0.0000
 2001 351    54    50    707 15.5200  0.0470  9.5089  3.5125  1.0875 0.17650  4.010  8.406 26.252 20.734  0.0000  0.0000  0.0000
 2001 352    55    51    808 17.0845  0.0575 10.3542  3.8441  1.2144 0.24463  4.194  8.907 25.925 20.873  0.0000  0.0000  0.0000
 2001 353    56    52    888 14.4034  0.0785  7.9055  3.4185  1.3288 0.23175  4.286  9.246 28.125 23.073  0.0000  0.0000  0.0000
 2001 354    57    53    970 14.7409  0.0976  8.1380  3.3518  1.5838 0.28901  4.393  9.610 29.365 24.958  0.0000  0.0000  0.0000
 2001 355    58    54   1014  8.2016  0.0706  4.5961  1.9442  0.6543 0.18337  4.445  9.802 19.775 18.091  0.0000  0.0000  0.0000
 2001 356    59    55   1141 21.4608  0.0898 12.5386  4.8939  1.4611 0.56592  4.694 10.501 23.210 20.272  0.0000  0.0000  0.0000
 2001 357    60    56   1278 23.3476  0.0951 13.4219  4.9749  1.4843 0.66896  4.939 11.177 24.620 18.744  0.0000  0.0000  0.0000
 2001 358    61    57   1425 25.5808  0.1280 14.4651  5.6362  1.8310 0.79815  5.175 11.824 25.265 20.320  0.0000  0.0000  0.0000
 2001 359    62    58   1582 27.7696  0.1594 15.4811  6.1991  2.1498 0.94117  5.406 12.451 26.358 21.127  0.0000  0.0000  0.0000
 2001 360    63    59   1749 29.1848  0.1999 16.9096  6.1425  2.5941 1.12951  5.667 13.089 28.284 22.587  0.0000  0.0000  0.0000
 2001 361    64    60   1918 30.1020  0.2579 16.9843  6.1813  3.1551 1.26520  5.898 13.674 29.723 24.671  0.0000  0.0000  0.0000
 2001 362    65    61   2099 30.7387  0.2880 18.2287  5.9750  3.1536 1.44252  6.134 14.263 29.109 24.021  0.0000  0.0000  0.0000
 2001 363    66    62   2283 31.0338  0.3410 18.6677  5.7971  3.3261 1.58272  6.359 14.818 28.481 24.396  0.0000  0.0000  0.0000
 2001 364    67    63   2459 31.8274  0.3941 17.7734  6.3727  3.7128 1.64018  6.548 15.304 29.720 25.205  0.0000  0.0000  0.0000
 2001 365    68    64   2607 27.7849  0.4402 14.1410  6.0798  3.5301 1.34879  6.611 15.580 29.645 25.202  0.0000  0.0000  0.0000
 2002 001    69    65   2814 36.5053  0.4275 21.1870  7.1332  3.5226 2.09208  6.874 16.174 26.851 22.694  0.0000  0.0000  0.0000
 2002 002    70    66   3022 35.3694  0.4889 20.8744  6.6182  3.6266 2.12592  7.088 16.686 26.783 22.984  0.0000  0.0000  0.0000
 2002 003    71    67   3237 38.4020  0.5129 21.5495  7.7896  3.6723 2.36962  7.300 17.216 25.968 22.133  0.0000  0.0000  0.0000
 2002 004    72    68   3434 36.0433  0.5648 19.3673  7.6010  3.6437 2.15975  7.442 17.608 26.380 22.042  0.0000  0.0000  0.0000
 2002 005    73    69   3510 17.3589  0.5474  9.0148  3.7834  2.2800 0.74171  7.426 17.586 21.498 20.422  0.0000  0.0000  0.0000
 2002 006    74    70   3679 30.4381  0.5993 17.8065  5.5778  3.2198 1.90545  7.581 17.913 23.874 21.401  0.0000  0.0000  0.0000
 2002 007    75    71   3889 36.6400  0.5242 20.7469  7.2735  2.9503 2.46081  7.782 18.393 22.443 18.822  0.0000  0.0000  0.0000
 2002 008    76    72   4123 41.3183  0.6382 23.0284  7.9843  3.8329 2.88024  7.998 18.905 26.339 20.317  0.0000  0.0000  0.0000
 2002 009    77    73   4339 39.1439  0.7614 21.9099  7.5826  4.0764 2.67196  8.173 19.300 25.650 21.528  0.0000  0.0000  0.0000
 2002 010    78    74   4565 40.4576  0.8629 23.0108  6.9845  4.6255 2.88004  8.357 19.718 27.292 22.489  0.0000  0.0000  0.0000
 2002 011    79    75   4765 38.7690  1.0203 21.2796  7.0747  5.3273 2.48920  8.482 19.968 28.765 24.428  0.0000  0.0000  0.0000
 2002 012    80    76   4993 42.2927  0.0000 21.0107  6.5310  6.1883 4.48495  9.013 21.285 30.446 25.535  0.0000  0.0000  0.0000
 2002 013    81    77   5180 40.7961  1.2692 19.8366  8.5734  6.5238 2.00522  9.012 21.301 30.865 26.277  0.0000  0.0000  0.0000
 2002 014    82    78   5286 24.2866  0.8989 13.4551  5.1233  3.1055 0.39699  8.982 21.151 22.505 19.351  0.0000  0.0000  0.0000
 2002 015    83    79   5475 35.3808  0.7483 19.9547  7.0818  3.0691 2.05886  9.093 21.380 21.627 17.218  0.0000  0.0000  0.0000
 2002 016    84    80   5665 37.2204  0.8472 19.8780  8.0812  3.3609 1.94371  9.170 21.540 22.269 17.718  0.0000  0.0000  0.0000
 2002 017    85    81   5854 37.7403  1.0078 21.8185  7.2172  3.8699 2.32296  9.290 21.753 23.770 18.968  0.0000  0.0000  0.0000
 2002 018    86    82   6044 40.2874  1.0890 22.8491  7.7203  4.0590 2.37163  9.407 21.961 23.299 19.106  6.1861 18.9422 33.8945
 2002 019    87    83   6225 42.8880  1.3267 22.1142  9.3012  5.1366 2.07354  9.444 22.027 26.602 21.120  6.1907 19.7454 33.0630
 2002 020    88    84   6366 39.3254  1.6755 20.8447  7.2078  7.2600 1.74964  9.464 21.985 32.151 26.023  6.3846 20.1544 31.4418
 2002 021    89    85   6457 33.5117  1.7474 16.2071  7.9210  6.0167 0.11469  9.318 21.599 27.761 24.536  6.3998 20.3167 31.1845
 2002 022    90    86   6594 40.8790  1.7922 20.0963  8.7836  7.3088 1.21530  9.269 21.434 30.506 25.849  6.4483 20.3834 30.8146
 2002 023    91    87   6723 38.9767  1.7670 20.1432  7.9402  7.0264 1.04829  9.240 21.263 30.829 25.204  6.4567 20.4186 30.7271
 2002 024    92    88   6750 26.7213  1.8401 14.4220  5.5029  5.7819 0.00000  9.114 20.858 28.042 24.531  6.4456 20.4411 30.7739
 2002 025    93    89   6855 39.4291  1.8158 19.8900  9.0520  6.5644 0.24932  9.011 20.510 27.911 24.328  6.4329 20.4571 30.8376
 2002 026    94    90   6906 25.2190  1.6761 12.9324  5.7946  4.8292 0.00000  8.881 20.129 24.825 22.318  6.3860 20.4347 31.1530
 2002 027    95    91   6949 31.1264  1.7513 16.8904  6.7724  5.5607 0.00000  8.773 19.741 25.651 23.215  6.3679 20.4457 31.2552
 2002 028    96    92   7054 41.4675  1.7364 20.8901  9.6551  6.7119 0.16411  8.677 19.390 29.128 23.828  6.3651 20.4570 31.2614
 2002 029    97    93   7149 41.1066  1.7663 20.8739  9.4189  7.2709 0.16630  8.578 19.031 30.742 24.726  6.3781 20.4652 31.1718
 2002 030    98    94   7269 39.4629  0.0000 16.0669  6.4245  6.9456 6.41258  9.394 21.144 29.085 24.466  6.3842 20.4717 31.1267
 2002 031    99    95   7329 34.0112  1.9732 17.5032  8.0548  6.0475 0.00000  9.271 20.703 26.487 23.408  6.3720 20.4761 31.1990
 2002 032   100    96   7426 40.3427  1.7539 20.8810 10.0688  5.3604 0.00000  9.167 20.309 24.155 21.005  6.3408 20.3901 31.4798
 2002 033   101    97   7542 36.2625  1.5407 19.3702  9.5499  4.2613 0.00000  9.080 19.962 22.927 18.452  6.3205 20.1006 31.8966
 2002 034   102    98   7689 34.9839  0.0000 15.4575  6.7105  4.0747 5.75257  9.832 21.873 22.565 17.948  6.3079 19.8241 32.2516
 2002 035   103    99   7842 38.5467  0.0000 17.3554  7.5758  5.2676 4.85929 10.492 23.456 25.174 20.343  6.2906 19.8042 32.3796
 2002 036   104   100   7938 30.1480  0.0000 15.0222  6.4834  5.4014 1.03178 10.739 23.842 26.026 21.589  6.2799 19.8524 32.3980
 2002 037   105   101   8010 29.7473  0.9844 15.8418  6.9328  5.2875 0.38508 10.809 23.787 24.837 21.438  6.2705 19.8862 32.4233
 2002 038   106   102   8118 33.5267  0.0000 16.0232  7.2192  5.3049 2.39751 11.222 24.600 24.674 20.882  6.2608 19.8903 32.4798
 2002 039   107   103   8185 30.1292  1.3537 16.0082  7.3966  5.4438 0.31183 11.251 24.434 24.801 21.581  6.2548 19.9223 32.4850
 2002 040   108   104   8195 18.0063  2.0966 11.2373  4.6192  3.8058 0.00161 11.141 23.969 21.386 18.883  6.2503 19.8319 32.6039
 2002 041   109   105   8270 32.6410  2.3786 17.1854  8.9007  5.9460 0.00000 11.005 23.423 25.365 22.326  6.2537 19.8803 32.5340
 2002 042   110   106   8348 32.9741  2.1021 17.1216  8.9498  5.9141 0.05640 10.900 22.952 26.647 21.856  6.2623 19.8922 32.4686
 2002 043   111   107   8380 21.3762  2.2208 12.2591  5.2342  5.1254 0.00781 10.765 22.418 23.725 21.831  6.2609 19.9122 32.4570
 2002 044   112   108   8446 31.7501  2.3265 16.3833  7.4927  6.6660 0.00000 10.608 21.836 27.572 23.605  6.1992 20.0967 32.6582
 2002 045   113   109   8511 33.0476  2.3100 16.3918  8.1057  7.4340 0.00000 10.438 21.238 29.457 24.741  6.1785 20.2033 32.6808
 2002 046   114   110   8596 31.6969  2.2230 15.7430  7.8508  7.0104 0.00000 10.263 20.644 28.654 24.188  6.1635 20.2812 32.6971
 2002 047   115   111   8690 30.3723  1.9546 15.7270  7.7451  5.1750 0.00000 10.104 20.109 24.359 20.644  6.1205 20.3440 32.9028
 2002 048   116   112   8784 30.0021  1.5986 15.0633  8.5694  4.8228 0.08115  9.995 19.698 24.046 19.832  6.1351 20.2673 32.8884
 2002 049   117   113   8870 28.0548  1.6417 14.0300  7.8344  4.8250 0.06578  9.866 19.256 24.410 20.126  6.1460 20.2141 32.8737
 2002 050   118   114   8929 23.8795  1.7342 11.6736  6.2263  5.5088 0.07274  9.716 18.779 26.494 22.424  6.1594 20.2017 32.8022
 2002 051   119   115   8969 19.8052  1.7768  9.7774  4.7818  5.3581 0.05663  9.545 18.269 25.714 22.894  6.1703 20.1955 32.7404
 2002 052   120   116   9041 25.8678  1.5774 12.2727  6.7680  5.2935 0.08845  9.396 17.823 24.809 21.991  6.1829 20.1776 32.6791
 2002 053   121   117   9111 25.3435  1.6028 11.8085  6.6168  5.5241 0.08098  9.229 17.356 25.839 22.628  6.1951 20.1672 32.6137
 2002 054   122   118   9175 22.0746  1.4721 10.7075  6.2429  4.3034 0.06420  9.064 16.912 23.776 19.960  6.2016 20.1304 32.6095
 2002 055   123   119   9233 17.9596  1.1632  9.1894  5.6760  2.7807 0.07846  8.937 16.569 20.150 15.586  6.2157 19.9924 32.6598
 2002 056   124   120   9303 23.5272  1.3215 10.8000  6.6795  4.6541 0.08795  8.781 16.170 27.266 19.958  6.2237 19.9576 32.6442
 2002 057   125   121   9353 22.1540  1.5504  9.2108  5.5911  6.6744 0.07952  8.580 15.682 31.053 25.600  6.2391 19.9544 32.5513
 2002 058   126   122   9398 21.6144  1.5583  8.7660  5.3796  6.9228 0.06878  8.365 15.177 31.813 26.291  6.2537 19.9530 32.4611
 2002 059   127   123   9423 16.9971  1.6764  6.7572  3.8210  6.8435 0.03273  8.111 14.604 31.392 27.224  6.2641 19.9561 32.3936
 2002 060   128   124   9483 17.8936  0.8091  8.6425  3.4288  3.8551 0.19698  8.034 14.406 23.356 19.581  6.2035 20.0614 32.6666
 2002 061   129   125   9269 18.8551  0.0000  8.0050  2.8638  4.3461 1.00899  8.206 14.365 26.400 20.455  6.1440 20.1765 32.9235
 2002 062   130   126   9074 14.9845  1.4336  6.5302  2.8179  5.1999 0.00000  7.845 13.364 29.737 23.901  6.1122 20.2545 33.0442
 2002 063   131   127   8892  9.6825  1.3129  3.4784  1.7265  5.3819 0.00000  7.469 12.435 30.021 26.215  6.1161 20.2566 33.0180
 2002 064   132   128   8734  3.9486  1.0317  1.3334  0.3825  3.3110 0.00000  7.137 11.656 22.612 21.509  6.1164 20.2563 33.0165
 2002 065   133   129   8607  4.5796  0.9390  1.5515  0.4451  3.5732 0.00000  6.814 10.945 25.472 22.486  6.1169 20.2568 33.0128
 2002 066   134   130   8490  4.5562  0.9047  0.7776  0.2231  4.4965 0.00000  6.468 10.268 29.072 25.873  6.1177 20.2573 33.0074
 2002 067   135   131   8397  2.7521  0.8119  0.0000  0.0000  4.1838 0.00000  6.128  9.655 28.494 25.580  6.1177 20.2573 33.0074
 2002 068   136   132   8320  3.4916  0.7537  0.0000  0.0000  4.9823 0.00000  5.797  9.087 32.417 28.013  6.1177 20.2573 33.0074
 2002 069   137   133   8250  2.7870  0.6938  0.0000  0.0000  5.0353 0.00000  5.481  8.565 32.993 28.555  6.1177 20.2573 33.0074
 2002 070   138   134   8177  1.0082  0.5850  0.0000  0.0000  3.1954 0.00000  5.207  8.119 24.507 22.981  6.1177 20.2573 33.0074
 2002 071   139   135   8115  0.7734  0.5220  0.0000  0.0000  2.7885 0.00000  4.956  7.721 22.260 21.515  6.1177 20.2573 33.0074
 2002 072   140   136   8063  1.1171  0.5264  0.0000  0.0000  3.4712 0.00000  4.697  7.326 26.560 24.291  6.1177 20.2573 33.0074

*DSSAT Cropping System Model Ver. 4.6.1.000 -release      OCT 27, 2016; 10:38:10
                                                                                
*RUN   3        : UYSB                      CRGRO046 UYSB1005    1              
 MODEL          : CRGRO046 - Soybean                                            
 EXPERIMENT     : UYSB1005 SN late to create DSS                                
 DATA PATH      :                                                               
 TREATMENT  1   : UYSB                      CRGRO046                            
  
@YEAR DOY   DAS   DAP   TWAD    PHAD    CMAD    CGRD    GRAD    MRAD    CHAD   CL%D   CS%D   TGNN   TGAV    GN%D    GL%D    GC%D
 2002 301     4     0      0  0.0000  0.0000  0.0000  0.0000  0.0000 0.00000  0.000  0.000 25.565 22.313  0.0000  0.0000  0.0000
 2002 302     5     1      0  0.0000  0.0000  0.0000  0.0000  0.0000 0.00000  0.000  0.000 17.235 14.876  0.0000  0.0000  0.0000
 2002 303     6     2      0  0.0000  0.0000  0.0000  0.0000  0.0000 0.00000  0.000  0.000 18.443 14.867  0.0000  0.0000  0.0000
 2002 304     7     3      0  0.0000  0.0000  0.0000  0.0000  0.0000 0.00000  0.000  0.000 21.502 17.569  0.0000  0.0000  0.0000
 2002 305     8     4      0  0.0000  0.0000  0.0000  0.0000  0.0000 0.00000  0.000  0.000 21.636 17.773  0.0000  0.0000  0.0000
 2002 306     9     5      0  0.0000  0.0000  0.0000  0.0000  0.0000 0.00000  0.000  0.000 23.827 20.179  0.0000  0.0000  0.0000
 2002 307    10     6      0  0.0000  0.0000  0.0000  0.0000  0.0000 0.00000  0.000  0.000 16.867 15.544  0.0000  0.0000  0.0000
 2002 308    11     7      8  0.0000  0.0002  0.0002  0.0001  0.0000 0.00000  3.973  7.943 15.211 13.243  0.0000  0.0000  0.0000
 2002 309    12     8      8  0.1121  0.0002  0.0713  0.0255  0.0045 0.00000  3.950  7.896 17.512 13.289  0.0000  0.0000  0.0000
 2002 310    13     9      9  0.1469  0.0003  0.0941  0.0316  0.0068 0.00000  3.921  7.842 19.788 15.243  0.0000  0.0000  0.0000
 2002 311    14    10     10  0.2057  0.0005  0.1317  0.0414  0.0129 0.00000  3.879  7.774 24.037 19.097  0.0000  0.0000  0.0000
 2002 312    15    11     12  0.2355  0.0007  0.1493  0.0464  0.0178 0.00000  3.832  7.701 26.285 21.452  0.0000  0.0000  0.0000
 2002 313    16    12     13  0.1204  0.0007  0.0764  0.0250  0.0091 0.00000  3.792  7.630 19.992 18.452  0.0000  0.0000  0.0000
 2002 314    17    13     13  0.1415  0.0004  0.0910  0.0308  0.0068 0.00000  3.775  7.600 16.726 14.256  0.0000  0.0000  0.0000
 2002 315    18    14     14  0.1181  0.0007  0.0751  0.0237  0.0090 0.00000  3.740  7.540 21.323 17.563  0.0000  0.0000  0.0000
 2002 316    19    15     16  0.3254  0.0008  0.2120  0.0634  0.0201 0.00000  3.713  7.536 24.944 18.677  0.0000  0.0000  0.0000
 2002 317    20    16     18  0.3522  0.0011  0.2253  0.0671  0.0280 0.00000  3.677  7.506 27.936 21.633  0.0000  0.0000  0.0000
 2002 318    21    17     20  0.3315  0.0014  0.2093  0.0628  0.0316 0.00000  3.631  7.450 28.227 23.678  0.0000  0.0000  0.0000
 2002 319    22    18     22  0.2920  0.0014  0.1766  0.0639  0.0263 0.00000  3.613  7.375 24.148 22.214  0.0000  0.0000  0.0000
 2002 320    23    19     25  0.4884  0.0017  0.2921  0.1080  0.0455 0.00000  3.615  7.325 28.677 24.235  0.0000  0.0000  0.0000
 2002 321    24    20     27  0.3102  0.0019  0.1844  0.0670  0.0340 0.00000  3.582  7.248 26.588 23.973  0.0000  0.0000  0.0000
 2002 322    25    21     31  0.6814  0.0020  0.4204  0.1453  0.0590 0.00000  3.574  7.271 27.300 23.932  0.0000  0.0000  0.0000
 2002 323    26    22     34  0.6250  0.0020  0.4056  0.1301  0.0487 0.00000  3.607  7.270 25.989 21.546  0.0000  0.0000  0.0000
 2002 324    27    23     37  0.4437  0.0023  0.2812  0.0921  0.0398 0.00000  3.608  7.228 23.629 21.623  0.0000  0.0000  0.0000
 2002 325    28    24     42  0.8613  0.0021  0.5279  0.1906  0.0542 0.00000  3.600  7.280 22.791 19.638  0.0000  0.0000  0.0000
 2002 326    29    25     49  1.0530  0.0021  0.6698  0.2260  0.0583 0.00000  3.607  7.343 22.804 18.110  0.0000  0.0000  0.0000
 2002 327    30    26     56  1.2607  0.0035  0.7826  0.2586  0.1058 0.00000  3.597  7.367 28.824 23.127  0.0000  0.0000  0.0000
 2002 328    31    27     63  1.1236  0.0048  0.6944  0.2291  0.1168 0.00000  3.621  7.313 28.058 25.585  0.0000  0.0000  0.0000
 2002 329    32    28     67  0.8355  0.0043  0.5398  0.1645  0.0751 0.00000  3.626  7.272 23.837 21.830  0.0000  0.0000  0.0000
 2002 330    33    29     77  1.7031  0.0052  0.9975  0.3676  0.1432 0.00000  3.600  7.295 26.967 23.455  0.0000  0.0000  0.0000
 2002 331    34    30     85  1.3715  0.0061  0.8291  0.2776  0.1337 0.00000  3.568  7.273 27.847 24.012  0.0000  0.0000  0.0000
 2002 332    35    31     91  0.9058  0.0040  0.5579  0.2008  0.0578 0.00000  3.564  7.251 18.431 16.925  0.0000  0.0000  0.0000
 2002 333    36    32     97  1.1497  0.0057  0.7101  0.2296  0.0932 0.00000  3.543  7.229 22.693 20.292  0.0000  0.0000  0.0000
 2002 334    37    33    112  2.4562  0.0078  1.5673  0.4757  0.2165 0.00000  3.569  7.263 27.443 24.110  0.0000  0.0000  0.0000
 2002 335    38    34    118  1.1814  0.0062  0.7051  0.2541  0.0871 0.00000  3.540  7.238 19.568 18.421  0.0000  0.0000  0.0000
 2002 336    39    35    137  3.0908  0.0070  1.9648  0.6122  0.1842 0.00000  3.540  7.315 22.793 19.316  0.0000  0.0000  0.0000
 2002 337    40    36    156  3.0396  0.0094  2.0678  0.6034  0.2175 0.00000  3.601  7.307 25.026 20.832  0.0000  0.0000  0.0000
 2002 338    41    37    165  1.9198  0.0096  1.2998  0.3699  0.1449 0.00000  3.619  7.264 20.570 19.423  0.0000  0.0000  0.0000
 2002 339    42    38    185  3.5224  0.0000  1.8386  0.4758  0.3186 0.58972  9.226 12.155 26.740 23.908  0.0000  0.0000  0.0000
 2002 340    43    39    199  2.6658  0.0248  1.6414  0.5459  0.2523 0.00000  8.637 11.605 24.996 22.845  0.0000  0.0000  0.0000
 2002 341    44    40    221  3.8534  0.0210  2.0594  0.9073  0.2632 0.00000  7.895 11.064 23.328 19.922  0.0000  0.0000  0.0000
 2002 342    45    41    247  5.1122  0.0174  2.3932  1.3275  0.2606 0.00000  7.219 10.597 21.115 17.136  0.0000  0.0000  0.0000
 2002 343    46    42    289  7.1050  0.0248  4.0970  1.5946  0.4543 0.00909  6.617 10.122 23.757 20.424  0.0000  0.0000  0.0000
 2002 344    47    43    317  4.9114  0.0260  2.8911  1.1149  0.3350 0.01968  6.317  9.924 21.992 19.555  0.0000  0.0000  0.0000
 2002 345    48    44    373  9.5577  0.0361  5.6627  2.1002  0.7517 0.07120  6.004  9.892 26.399 23.174  0.0000  0.0000  0.0000
 2002 346    49    45    432  9.8531  0.0377  5.8748  2.1791  0.6968 0.10522  5.827 10.026 24.613 21.424  0.0000  0.0000  0.0000
 2002 347    50    46    487  9.3631  0.0428  5.5360  2.1280  0.6757 0.12834  5.733 10.225 23.934 21.067  0.0000  0.0000  0.0000
 2002 348    51    47    553 11.6497  0.0587  6.7211  2.6169  1.0391 0.19691  5.695 10.546 27.728 24.037  0.0000  0.0000  0.0000
 2002 349    52    48    625 12.6725  0.0707  7.2083  2.8600  1.2057 0.25726  5.709 10.938 28.295 24.784  0.0000  0.0000  0.0000
 2002 350    53    49    721 16.6357  0.0784  9.4976  3.8067  1.3975 0.39874  5.798 11.519 26.756 23.674  0.0000  0.0000  0.0000
 2002 351    54    50    822 17.2163  0.0836  9.9598  3.9323  1.2887 0.47609  5.915 12.103 25.150 21.782  0.0000  0.0000  0.0000
 2002 352    55    51    943 20.4838  0.0934 11.8477  4.6781  1.4465 0.63094  6.072 12.760 25.998 20.875  0.0000  0.0000  0.0000
 2002 353    56    52    985  8.4101  0.0931  4.5496  2.0066  0.6798 0.26382  6.099 12.919 20.469 18.498  0.0000  0.0000  0.0000
 2002 354    57    53   1097 19.4839  0.1170 11.0342  4.3879  1.4036 0.70192  6.257 13.496 23.830 20.677  0.0000  0.0000  0.0000
 2002 355    58    54   1235 24.0127  0.1357 13.3767  5.4415  1.7145 0.92638  6.452 14.159 25.359 20.665  0.0000  0.0000  0.0000
 2002 356    59    55   1289 12.2413  0.1956  6.9892  2.3748  1.4838 0.53927  6.564 14.399 27.531 23.840  0.0000  0.0000  0.0000
 2002 357    60    56   1340  9.8240  0.0997  4.9116  2.3269  0.6144 0.39209  6.589 14.581 17.409 15.009  0.0000  0.0000  0.0000
 2002 358    61    57   1460 20.8659  0.1377 11.3448  4.4326  1.2516 0.95967  6.742 15.123 21.657 17.501  0.0000  0.0000  0.0000
 2002 359    62    58   1617 28.2739  0.1903 15.2119  5.7216  1.9798 1.36812  6.970 15.807 25.205 19.830  0.0000  0.0000  0.0000
 2002 360    63    59   1776 29.5565  0.2688 15.5252  6.0021  2.6904 1.48566  7.171 16.397 28.171 22.975  0.0000  0.0000  0.0000
 2002 361    64    60   1932 30.6278  0.3398 15.3691  6.2480  3.5417 1.54861  7.346 16.899 31.817 25.941  0.0000  0.0000  0.0000
 2002 362    65    61   1991 14.6501  0.3832  6.7394  3.2734  2.0819 0.64758  7.359 16.930 26.428 24.349  0.0000  0.0000  0.0000
 2002 363    66    62   2053 14.9358  0.4048  6.9447  3.3664  2.2187 0.67347  7.375 16.971 27.574 24.815  0.0000  0.0000  0.0000
 2002 364    67    63   2160 22.0203  0.3895 10.9097  4.9425  2.5080 1.17326  7.482 17.266 26.933 23.529  0.0000  0.0000  0.0000
 2002 365    68    64   2242 17.6968  0.3662  8.6473  4.1565  1.9409 0.84830  7.543 17.422 23.833 21.503  0.0000  0.0000  0.0000
 2003 001    69    65   2381 26.1984  0.4045 14.6082  5.2517  2.6016 1.67938  7.790 17.952 25.072 22.312  0.0000  0.0000  0.0000
 2003 002    70    66   2561 29.6232  0.4299 17.8309  5.3724  2.7744 2.13158  8.053 18.592 24.951 21.868  0.0000  0.0000  0.0000
 2003 003    71    67   2647 17.3617  0.4619  9.2522  3.6552  2.0916 0.83356  8.083 18.665 24.083 21.359  0.0000  0.0000  0.0000
 2003 004    72    68   2864 35.0344  0.0000 15.0813  4.3412  3.8280 8.48791  9.924 23.591 28.100 24.085  0.0000  0.0000  0.0000
 2003 005    73    69   3077 34.3757  0.0000 13.9122  4.0564  3.9421 9.16242 11.731 28.238 29.302 23.961  0.0000  0.0000  0.0000
 2003 006    74    70   3273 35.1972  0.8446 19.4548  7.0650  3.4621 2.54689 11.771 28.167 25.764 21.928  0.0000  0.0000  0.0000
 2003 007    75    71   3467 36.2435  0.9030 18.9223  7.6469  3.8088 2.49249 11.764 28.075 27.684 22.307  0.0000  0.0000  0.0000
 2003 008    76    72   3678 35.9828  0.0000 17.1117  5.3698  4.0630 5.90002 12.606 30.058 28.474 22.810  0.0000  0.0000  0.0000
 2003 009    77    73   3858 33.4838  0.0000 17.4424  5.4105  4.5872 2.74363 12.913 30.585 28.626 24.969  0.0000  0.0000  0.0000
 2003 010    78    74   3935 20.6352  1.3225  9.6614  4.9199  3.5978 0.23907 12.710 30.141 26.855 24.346  0.0000  0.0000  0.0000
 2003 011    79    75   4093 32.5084  1.2536 18.0102  5.6678  4.3594 2.27194 12.745 30.047 28.324 23.880  0.0000  0.0000  0.0000
 2003 012    80    76   4277 37.2381  1.3033 19.5579  7.5800  4.5169 2.50718 12.748 29.923 28.032 23.086  6.2926 20.4760 31.6953
 2003 013    81    77   4475 37.1155  1.2614 20.9955  6.9274  4.1434 2.90598 12.818 29.912 27.304 21.497  6.2379 20.2744 32.2387
 2003 014    82    78   4669 37.1510  0.0000 15.6258  5.1188  4.9991 7.63782 13.862 32.378 29.163 23.787  6.2956 20.3897 31.7628
 2003 015    83    79   4844 35.2476  0.0000 13.5066  4.6085  5.4891 8.04889 14.987 34.994 29.931 25.272  6.3861 20.4433 31.1435
 2003 016    84    80   5014 35.0073  0.0000 11.4763  4.0279  5.862910.09435 16.381 38.209 30.219 26.062  6.4561 20.4672 30.6822
 2003 017    85    81   5116 33.2602  2.5069 15.8848  7.6809  6.2220 1.02244 16.183 37.648 31.815 26.870  6.5166 20.4791 30.2922
 2003 018    86    82   5223 35.5935  2.2116 18.8206  8.0620  4.6624 1.39584 16.070 37.208 26.250 22.451  6.4262 20.4494 30.8870
 2003 019    87    83   5368 33.7308  0.0000 12.4377  4.8209  5.1473 7.74938 17.122 39.547 29.569 23.478  6.3915 20.4658 31.0872
 2003 020    88    84   5449 29.0824  2.6649 15.5110  7.0487  4.8398 0.00000 16.935 38.981 26.687 23.785  6.3788 20.4764 31.1561
 2003 021    89    85   5558 35.0538  2.6221 18.2787  8.2423  5.3585 0.41083 16.759 38.427 28.279 23.800  6.3720 20.4824 31.1928
 2003 022    90    86   5605 24.9103  2.7970 13.4416  5.8021  5.2598 0.00000 16.552 37.811 29.051 25.289  6.3970 20.4863 31.0327
 2003 023    91    87   5726 34.2757  2.4656 19.1614  8.3442  4.6848 0.00000 16.380 37.266 25.355 22.131  6.3623 20.4526 31.2831
 2003 024    92    88   5842 34.8913  2.1916 18.5472  8.8812  4.1149 0.17576 16.238 36.789 25.627 19.752  6.3306 20.2644 31.6691
 2003 025    93    89   5946 33.1784  2.5647 18.4282  7.9503  5.1986 0.00000 16.050 36.205 27.852 23.088  6.3242 20.3003 31.6734
 2003 026    94    90   6078 34.5197  0.0000 15.5037  6.5184  5.1750 3.64231 16.662 37.435 27.983 22.538  6.3134 20.3170 31.7241
 2003 027    95    91   6200 32.9147  0.0000 13.8934  5.7823  5.0242 4.91091 17.428 39.015 27.938 22.136  6.3014 20.3185 31.7981
 2003 028    96    92   6341 34.0453  0.0000 13.1439  5.4730  5.8331 6.41453 18.375 40.977 29.560 23.830  6.3091 20.3447 31.7237
 2003 029    97    93   6434 32.9576  0.0000 13.5003  5.5846  6.3524 4.61935 19.120 42.375 30.077 25.171  6.3312 20.3657 31.5642
 2003 030    98    94   6510 34.5833  3.6516 17.1133  8.8215  7.5699 0.00374 18.868 41.629 32.949 27.220  6.3722 20.3827 31.2909
 2003 031    99    95   6566 33.1351  3.6377 16.7045  8.1376  7.9974 0.06287 18.592 40.852 33.943 28.214  6.4148 20.3962 31.0114
 2003 032   100    96   6595 27.7376  3.6069 14.3626  7.2137  6.6820 0.00000 18.332 40.074 30.544 26.606  6.4379 20.4092 30.8541
 2003 033   101    97   6647 31.6875  2.5267 15.7560  7.3926  7.7374 0.29958 18.247 39.636 33.602 27.803  6.4678 20.4193 30.6568
 2003 034   102    98   6648 19.1218  3.4207 10.4803  5.0548  5.8586 0.00663 17.998 38.862 30.379 26.048  6.4796 20.4228 30.5799
 2003 035   103    99   6616 17.9762  3.2280 10.0717  4.5784  5.4736 0.03196 17.780 38.125 29.245 25.344  6.4918 20.4067 30.5195
 2003 036   104   100   6616 14.7918  2.9850  9.2606  3.6300  4.1228 0.00000 17.579 37.412 24.113 22.396  6.4720 20.4047 30.6456
 2003 037   105   101   6671 28.4766  3.1786 14.4762  7.5743  6.7663 0.01254 17.354 36.629 31.134 26.483  6.4888 20.4079 30.5374
 2003 038   106   102   6696 20.0237  3.0538 11.2686  5.0723  5.2007 0.00347 17.132 35.848 26.892 24.388  6.4829 20.4134 30.5687
 2003 039   107   103   6716 24.1457  3.0534 12.7680  6.6224  5.9689 0.00140 16.895 35.035 28.701 25.481  6.4847 20.4199 30.5508
 2003 040   108   104   6756 22.2457  2.8279 11.4174  5.8876  6.0161 0.05693 16.684 34.278 28.827 25.930  6.5015 20.3987 30.4668
 2003 041   109   105   6796 20.9083  2.7519 10.9122  5.4030  5.5943 0.04194 16.461 33.509 27.938 25.077  6.5082 20.3865 30.4372
 2003 042   110   106   6809 15.1466  2.6254  8.5889  3.6654  4.5982 0.02030 16.229 32.740 25.611 23.430  6.5035 20.3831 30.4698
 2003 043   111   107   6878 26.1887  2.5869 13.0934  6.9634  5.6585 0.03331 15.986 31.960 27.201 24.270  6.5025 20.3778 30.4813
 2003 044   112   108   6950 25.8778  2.5170 12.9978  7.1017  5.3642 0.01392 15.723 31.164 27.487 23.555  6.4944 20.3802 30.5300
 2003 045   113   109   7019 25.2824  2.4831 12.5844  7.2453  5.4198 0.00436 15.441 30.346 28.331 23.793  6.4870 20.3855 30.5708
 2003 046   114   110   7073 22.4689  2.3023 10.8050  6.2151  5.5309 0.04634 15.179 29.584 29.744 24.528  6.4912 20.3755 30.5548
 2003 047   115   111   7128 17.9857  1.9653  9.8632  5.5700  2.9402 0.00492 14.933 28.898 20.941 17.905  6.4813 20.2779 30.7141
 2003 048   116   112   7204 23.5771  1.9830 12.0308  7.1913  3.7211 0.01603 14.672 28.190 25.007 19.257  6.4696 20.2148 30.8503
 2003 049   117   113   7274 22.8721  2.0378 11.3392  6.8282  4.2229 0.01443 14.384 27.440 27.035 20.893  6.4596 20.1984 30.9293
 2003 050   118   114   7293 10.3071  1.7471  6.0591  3.1791  2.2777 0.00824 14.124 26.777 19.488 16.596  6.4575 20.1193 31.0213
 2003 051   119   115   7343 15.9710  1.6337  8.4638  5.0706  2.5048 0.03376 13.878 26.156 20.213 16.680  6.4575 20.0110 31.1294
 2003 052   120   116   7396 16.4935  1.6439  8.6927  5.1875  2.5827 0.01578 13.610 25.505 22.174 16.429  6.4557 19.9034 31.2482
 2003 053   121   117   7412 11.2976  1.6321  5.9419  3.3319  2.6369 0.03860 13.340 24.857 21.269 18.130  6.4559 19.8591 31.2918
 2003 054   122   118   7382  6.7383  1.6588  3.9280  1.8214  2.3433 0.01331 13.042 24.166 19.850 17.853  6.4546 19.8308 31.3280
 2003 055   123   119   7415 14.2641  1.5627  7.0536  2.5741  3.9548 0.10720 12.783 23.554 25.621 22.625  6.3893 19.9699 31.5971
 2003 056   124   120   7267 17.7972  1.8282  8.4590  3.7360  4.3672 0.00000 12.272 22.246 28.431 22.905  6.3338 20.0914 31.8226
 2003 057   125   121   7134 13.2140  1.6863  5.4807  2.7788  5.0042 0.00000 11.735 20.996 31.406 26.310  6.3264 20.1222 31.8381
 2003 058   126   122   7017 10.0656  1.5020  3.9600  1.6082  4.9377 0.00000 11.203 19.834 31.998 27.366  6.3019 20.1858 31.9275
 2003 059   127   123   6911  4.8390  1.2644  1.9610  0.6878  3.3589 0.00000 10.711 18.804 26.249 23.827  6.3022 20.1877 31.9236
 2003 060   128   124   6823  3.5797  1.0934  1.4106  0.4046  2.9044 0.00000 10.250 17.880 24.271 22.597  6.3020 20.1887 31.9238
 2003 061   129   125   6739  2.1481  0.9777  0.3554  0.1019  2.6802 0.00000  9.782 17.028 23.662 22.202  6.3019 20.1889 31.9241
 2003 062   130   126   6679  3.2928  0.9197  0.9888  0.2836  2.9741 0.00000  9.338 16.219 26.425 23.293  6.3019 20.1898 31.9230
 2003 063   131   127   6631  3.0025  0.8156  0.8515  0.2443  2.7506 0.00000  8.923 15.485 27.204 22.223  6.3018 20.1902 31.9237
 2003 064   132   128   6585  1.8606  0.8100  0.0000  0.0000  3.2436 0.00000  8.472 14.751 28.794 25.166  6.3018 20.1902 31.9237
 2003 065   133   129   6537  0.7925  0.7129  0.0000  0.0000  2.5604 0.00000  8.064 14.093 23.452 22.670  6.3018 20.1902 31.9237
 2003 066   134   130   6495  0.9556  0.7070  0.0000  0.0000  3.0450 0.00000  7.650 13.438 27.405 24.953  6.3018 20.1902 31.9237
 2003 067   135   131   6463  0.6657  0.6594  0.0000  0.0000  2.9660 0.00000  7.257 12.821 27.217 24.801  6.3018 20.1902 31.9237

*DSSAT Cropping System Model Ver. 4.6.1.000 -release      OCT 27, 2016; 10:38:10
                                                                                
*RUN   4        : UYSB                      CRGRO046 UYSB1005    1              
 MODEL          : CRGRO046 - Soybean                                            
 EXPERIMENT     : UYSB1005 SN late to create DSS                                
 DATA PATH      :                                                               
 TREATMENT  1   : UYSB                      CRGRO046                            
  
@YEAR DOY   DAS   DAP   TWAD    PHAD    CMAD    CGRD    GRAD    MRAD    CHAD   CL%D   CS%D   TGNN   TGAV    GN%D    GL%D    GC%D
 2003 301     4     0      0  0.0000  0.0000  0.0000  0.0000  0.0000 0.00000  0.000  0.000 21.629 16.340  0.0000  0.0000  0.0000
 2003 302     5     1      0  0.0000  0.0000  0.0000  0.0000  0.0000 0.00000  0.000  0.000 24.119 18.543  0.0000  0.0000  0.0000
 2003 303     6     2      0  0.0000  0.0000  0.0000  0.0000  0.0000 0.00000  0.000  0.000 29.056 23.550  0.0000  0.0000  0.0000
 2003 304     7     3      0  0.0000  0.0000  0.0000  0.0000  0.0000 0.00000  0.000  0.000 18.680 15.676  0.0000  0.0000  0.0000
 2003 305     8     4      0  0.0000  0.0000  0.0000  0.0000  0.0000 0.00000  0.000  0.000 17.079 13.324  0.0000  0.0000  0.0000
 2003 306     9     5      0  0.0000  0.0000  0.0000  0.0000  0.0000 0.00000  0.000  0.000 17.762 12.218  0.0000  0.0000  0.0000
 2003 307    10     6      8  0.0000  0.0002  0.0002  0.0001  0.0000 0.00000  3.972  7.942 18.868 13.073  0.0000  0.0000  0.0000
 2003 308    11     7      8  0.1387  0.0003  0.0885  0.0287  0.0069 0.00000  3.939  7.877 20.549 15.933  0.0000  0.0000  0.0000
 2003 309    12     8     10  0.1862  0.0005  0.1193  0.0382  0.0104 0.00000  3.902  7.812 22.668 17.837  0.0000  0.0000  0.0000
 2003 310    13     9     11  0.2182  0.0006  0.1396  0.0441  0.0146 0.00000  3.858  7.743 24.731 20.043  0.0000  0.0000  0.0000
 2003 311    14    10     12  0.2426  0.0008  0.1545  0.0496  0.0182 0.00000  3.812  7.675 25.951 21.298  0.0000  0.0000  0.0000
 2003 312    15    11     14  0.2428  0.0009  0.1534  0.0492  0.0206 0.00000  3.766  7.606 27.600 22.303  0.0000  0.0000  0.0000
 2003 313    16    12     15  0.2323  0.0011  0.1452  0.0462  0.0229 0.00000  3.714  7.527 27.959 23.806  0.0000  0.0000  0.0000
 2003 314    17    13     17  0.3362  0.0011  0.2138  0.0670  0.0284 0.00000  3.675  7.492 28.213 22.664  0.0000  0.0000  0.0000
 2003 315    18    14     19  0.3440  0.0013  0.2142  0.0668  0.0363 0.00000  3.631  7.441 31.366 25.171  0.0000  0.0000  0.0000
 2003 316    19    15     21  0.1821  0.0009  0.1178  0.0370  0.0126 0.00000  3.605  7.403 19.316 17.060  0.0000  0.0000  0.0000
 2003 317    20    16     22  0.2666  0.0008  0.1617  0.0683  0.0137 0.00000  3.629  7.366 18.352 15.415  0.0000  0.0000  0.0000
 2003 318    21    17     24  0.3570  0.0008  0.2219  0.0840  0.0179 0.00000  3.646  7.355 20.675 15.482  0.0000  0.0000  0.0000
 2003 319    22    18     27  0.5169  0.0015  0.3397  0.1073  0.0379 0.00000  3.678  7.339 26.849 20.545  0.0000  0.0000  0.0000
 2003 320    23    19     29  0.2567  0.0016  0.1524  0.0577  0.0227 0.00000  3.644  7.280 21.316 19.812  0.0000  0.0000  0.0000
 2003 321    24    20     32  0.4756  0.0019  0.3058  0.0955  0.0390 0.00000  3.640  7.265 25.172 21.482  0.0000  0.0000  0.0000
 2003 322    25    21     33  0.2921  0.0012  0.1748  0.0681  0.0176 0.00000  3.624  7.245 17.422 15.667  0.0000  0.0000  0.0000
 2003 323    26    22     38  0.7804  0.0019  0.4860  0.1706  0.0500 0.00000  3.627  7.281 23.886 19.694  0.0000  0.0000  0.0000
 2003 324    27    23     42  0.6832  0.0015  0.4281  0.1562  0.0323 0.00000  3.641  7.303 18.961 15.736  0.0000  0.0000  0.0000
 2003 325    28    24     48  0.9814  0.0021  0.6228  0.2090  0.0552 0.00000  3.643  7.352 23.516 17.818  0.0000  0.0000  0.0000
 2003 326    29    25     55  1.1665  0.0036  0.7123  0.2372  0.1105 0.00000  3.624  7.357 30.701 24.430  0.0000  0.0000  0.0000
 2003 327    30    26     63  1.2767  0.0046  0.7698  0.2596  0.1412 0.00000  3.596  7.346 32.061 26.722  0.0000  0.0000  0.0000
 2003 328    31    27     65  0.5239  0.0030  0.3164  0.1221  0.0393 0.00000  3.584  7.297 18.854 17.420  0.0000  0.0000  0.0000
 2003 329    32    28     75  1.6055  0.0041  1.0009  0.3443  0.1111 0.00000  3.588  7.332 25.665 20.576  0.0000  0.0000  0.0000
 2003 330    33    29     83  1.3845  0.0058  0.8864  0.2704  0.1319 0.00000  3.600  7.308 27.935 23.814  0.0000  0.0000  0.0000
 2003 331    34    30     96  2.1209  0.0063  1.2793  0.4429  0.1783 0.00000  3.580  7.332 27.597 23.368  0.0000  0.0000  0.0000
 2003 332    35    31    106  1.6608  0.0065  1.0317  0.3391  0.1326 0.00000  3.560  7.323 25.765 21.177  0.0000  0.0000  0.0000
 2003 333    36    32    122  2.6492  0.0074  1.6483  0.5269  0.1996 0.00000  3.561  7.348 27.056 21.644  0.0000  0.0000  0.0000
 2003 334    37    33    130  1.4844  0.0073  0.9288  0.3031  0.1128 0.00000  3.540  7.319 21.430 19.387  0.0000  0.0000  0.0000
 2003 335    38    34    149  3.0995  0.0090  1.9562  0.6150  0.2224 0.00000  3.532  7.348 24.764 21.216  0.0000  0.0000  0.0000
 2003 336    39    35    168  2.9842  0.0093  1.8984  0.5892  0.1985 0.00000  3.523  7.363 24.016 19.535  0.0000  0.0000  0.0000
 2003 337    40    36    188  3.3898  0.0124  2.0381  0.7402  0.2746 0.00000  3.547  7.326 27.049 21.851  0.0000  0.0000  0.0000
 2003 338    41    37    203  2.9461  0.0145  1.7567  0.6665  0.2661 0.00000  3.545  7.269 26.335 22.428  0.0000  0.0000  0.0000
 2003 339    42    38    233  4.9039  0.0123  3.0127  1.1176  0.2968 0.00000  3.580  7.283 23.256 19.134  0.0000  0.0000  0.0000
 2003 340    43    39    265  5.3362  0.0122  3.2987  1.2125  0.2921 0.00000  3.608  7.302 23.228 17.421  0.0000  0.0000  0.0000
 2003 341    44    40    297  5.2780  0.0179  3.2097  1.1763  0.3780 0.00000  3.612  7.285 25.252 20.305  0.0000  0.0000  0.0000
 2003 342    45    41    321  4.2079  0.0174  2.5726  0.9717  0.2849 0.00000  3.606  7.259 22.502 18.487  0.0000  0.0000  0.0000
 2003 343    46    42    360  6.4929  0.0159  4.0348  1.5189  0.3307 0.00000  3.622  7.278 20.643 16.736  0.0000  0.0000  0.0000
 2003 344    47    43    413  8.8375  0.0221  5.4291  2.0837  0.5498 0.00000  3.635  7.295 25.323 18.944  0.0000  0.0000  0.0000
 2003 345    48    44    461  7.9815  0.0266  4.8805  1.8241  0.5408 0.00000  3.632  7.284 24.798 19.423  0.0000  0.0000  0.0000
 2003 346    49    45    516  9.0673  0.0237  5.6088  2.1117  0.4868 0.01538  3.662  7.366 22.007 16.918  0.0000  0.0000  0.0000
 2003 347    50    46    575  9.7063  0.0335  5.9036  2.2266  0.6401 0.04270  3.709  7.518 23.174 19.340  0.0000  0.0000  0.0000
 2003 348    51    47    653 13.1616  0.0453  7.8751  3.0058  1.0008 0.09838  3.804  7.818 25.928 21.700  0.0000  0.0000  0.0000
 2003 349    52    48    691  7.3589  0.0451  4.5574  1.5990  0.5906 0.07802  3.874  7.981 22.775 19.479  0.0000  0.0000  0.0000
 2003 350    53    49    763 12.1420  0.0353  7.0947  2.9165  0.6053 0.14635  3.985  8.338 19.816 16.090  0.0000  0.0000  0.0000
 2003 351    54    50    853 14.9842  0.0454  8.9413  3.4588  0.8260 0.21954  4.128  8.781 22.238 17.222  0.0000  0.0000  0.0000
 2003 352    55    51    966 18.7470  0.0628 11.1280  4.3213  1.1946 0.32437  4.299  9.307 24.712 19.087  0.0000  0.0000  0.0000
 2003 353    56    52   1064 17.0259  0.0971  9.6419  3.9156  1.5423 0.33670  4.422  9.707 27.485 22.863  0.0000  0.0000  0.0000
 2003 354    57    53   1131 12.3020  0.1021  6.8661  2.8430  1.1465 0.27827  4.507  9.970 24.190 21.467  0.0000  0.0000  0.0000
 2003 355    58    54   1268 22.9362  0.1279 14.3927  4.5011  2.1544 0.66785  4.794 10.671 28.305 24.005  0.0000  0.0000  0.0000
 2003 356    59    55   1350 15.6524  0.1030  7.4709  4.0709  1.0957 0.38358  4.852 10.963 22.224 18.247  0.0000  0.0000  0.0000
 2003 357    60    56   1476 22.3115  0.1043 12.3586  4.8208  1.3231 0.68797  5.058 11.531 22.232 17.466  0.0000  0.0000  0.0000
 2003 358    61    57   1606 23.3132  0.1424 13.0206  4.9267  1.6696 0.79172  5.263 12.075 24.085 19.463  0.0000  0.0000  0.0000
 2003 359    62    58   1768 29.5031  0.2101 16.0741  6.0954  2.7396 1.08045  5.493 12.698 27.851 23.408  0.0000  0.0000  0.0000
 2003 360    63    59   1923 28.9103  0.2353 15.5448  6.0985  2.7071 1.16037  5.705 13.268 27.790 22.917  0.0000  0.0000  0.0000
 2003 361    64    60   1987 14.9516  0.2644  7.5249  3.3786  1.8330 0.61182  5.773 13.440 25.555 22.474  0.0000  0.0000  0.0000
 2003 362    65    61   2108 22.3406  0.2178 12.0956  4.8907  1.7311 1.03469  5.938 13.880 21.741 19.161  0.0000  0.0000  0.0000
 2003 363    66    62   2260 27.3550  0.1968 14.8868  5.9463  1.7175 1.32734  6.150 14.441 22.108 17.019  0.0000  0.0000  0.0000
 2003 364    67    63   2441 33.3274  0.2846 17.7264  7.4147  2.6377 1.66874  6.378 15.041 26.120 19.992  0.0000  0.0000  0.0000
 2003 365    68    64   2601 29.9149  0.2827 15.8014  6.9373  2.1096 1.54467  6.566 15.527 21.686 18.425  0.0000  0.0000  0.0000
 2004 001    69    65   2793 33.7730  0.3055 19.4488  7.0494  2.4566 2.01034  6.837 16.146 24.903 18.201  0.0000  0.0000  0.0000
 2004 002    70    66   3029 36.5394  0.3676 22.9754  6.6994  2.7974 2.45794  7.107 16.804 25.128 19.035  0.0000  0.0000  0.0000
 2004 003    71    67   3270 38.6129  0.0000 21.3159  5.7599  3.7243 4.63532  7.865 18.808 27.646 21.875  0.0000  0.0000  0.0000
 2004 004    72    68   3468 33.9398  0.0000 19.3558  5.2327  4.1429 2.57628  8.191 19.547 29.025 24.007  0.0000  0.0000  0.0000
 2004 005    73    69   3673 36.0227  0.0000 19.4698  5.1228  5.1729 3.50053  8.657 20.675 30.851 26.442  0.0000  0.0000  0.0000
 2004 006    74    70   3872 38.5568  0.8991 20.1894  7.5480  5.4757 2.50431  8.727 20.820 31.646 26.162  0.0000  0.0000  0.0000
 2004 007    75    71   4038 32.7485  0.9587 17.8367  5.8589  5.0406 2.16974  8.797 20.915 30.919 25.900  0.0000  0.0000  0.0000
 2004 008    76    72   4246 40.4796  1.0149 21.0666  7.8881  5.5043 2.71668  8.876 21.088 29.420 25.477  0.0000  0.0000  0.0000
 2004 009    77    73   4443 39.2868  1.0927 19.6908  7.9403  5.6789 2.47414  8.905 21.186 29.658 25.823  0.0000  0.0000  0.0000
 2004 010    78    74   4626 37.2476  1.1427 19.8226  7.0226  5.5939 2.42353  8.983 21.306 29.470 25.670  0.0000  0.0000  0.0000
 2004 011    79    75   4851 41.3059  1.0997 23.4097  7.0842  5.0929 3.06306  9.132 21.595 25.981 23.544  0.0000  0.0000  0.0000
 2004 012    80    76   5028 34.0959  0.1586 18.4523  5.7608  4.5381 2.17250  9.350 22.029 26.068 22.807  0.0000  0.0000  0.0000
 2004 013    81    77   5240 38.2792  0.0000 17.3303  5.6134  4.7624 6.60683 10.128 24.015 26.249 22.414  0.0000  0.0000  0.0000
 2004 014    82    78   5482 42.3581  0.0000 16.1305  5.2550  5.498611.02774 11.403 27.297 27.584 23.319  0.0000  0.0000  0.0000
 2004 015    83    79   5651 36.4231  1.4068 18.6142  8.1242  4.4967 1.58048 11.346 27.118 25.231 21.360  0.0000  0.0000  0.0000
 2004 016    84    80   5850 41.8926  1.3999 22.0746  8.9927  4.5249 2.35474 11.352 27.054 25.146 20.272  0.0000  0.0000  0.0000
 2004 017    85    81   5927 27.0590  1.6782 13.1033  6.7244  4.5169 0.00000 11.173 26.648 26.779 22.264  6.2393 20.3550 32.1495
 2004 018    86    82   6015 26.0478  1.7768 13.0755  6.2286  4.6784 0.00000 10.993 26.222 26.110 22.992  6.2759 20.4436 31.8324
 2004 019    87    83   6116 28.0839  1.5990 14.0285  7.0767  4.1007 0.00000 10.826 25.835 22.887 21.024  6.2324 20.2097 32.3376
 2004 020    88    84   6225 31.8574  1.7331 16.8829  6.9107  5.2635 0.46065 10.725 25.523 27.044 23.246  6.2602 20.3165 32.0571
 2004 021    89    85   6396 40.4616  1.6646 22.0678  7.6773  6.1595 1.77458 10.765 25.475 27.668 23.942  6.2984 20.3836 31.7516
 2004 022    90    86   6574 39.9257  0.0000 16.3233  5.8703  6.5765 6.96419 11.603 27.542 28.524 24.690  6.3403 20.4205 31.4526
 2004 023    91    87   6680 38.2736  2.2589 18.7305  9.4396  6.2945 0.04262 11.422 27.057 27.717 24.134  6.3523 20.4437 31.3545
 2004 024    92    88   6815 40.0820  2.2704 21.1814  8.7950  6.6970 0.64132 11.316 26.678 28.823 24.488  6.3696 20.4599 31.2299
 2004 025    93    89   6966 41.0310  2.1418 22.5286  8.9115  6.0958 0.70361 11.236 26.347 27.841 22.790  6.3442 20.4558 31.3928
 2004 026    94    90   7127 41.5022  0.0000 18.7197  7.2884  6.4545 4.51699 11.816 27.702 29.479 22.996  6.3310 20.4585 31.4725
 2004 027    95    91   7293 41.6061  0.0000 17.2442  6.6402  6.2920 7.09861 12.661 29.732 28.366 22.635  6.3154 20.4503 31.5787
 2004 028    96    92   7362 29.5452  2.7005 16.5674  6.5001  5.9793 0.00000 12.503 29.207 28.006 23.673  6.3210 20.4615 31.5322
 2004 029    97    93   7416 41.0998  2.8566 20.2329  9.9768  8.1557 0.00000 12.318 28.634 31.235 26.222  6.3688 20.4690 31.2263
 2004 030    98    94   7509 40.5676  2.8083 20.0568  9.4079  8.8993 0.05406 12.143 28.068 33.552 27.321  6.4253 20.4749 30.8668
 2004 031    99    95   7538 30.0715  2.8955 15.1229  6.6671  8.1386 0.00000 11.965 27.475 32.639 27.662  6.4740 20.4795 30.5580
 2004 032   100    96   7613 37.4986  2.7898 18.7615  9.1831  7.5091 0.00000 11.798 26.895 28.884 25.555  6.4800 20.4832 30.5165
 2004 033   101    97   7696 35.9128  1.7110 19.0220  8.0382  6.4963 0.27132 11.779 26.645 27.468 23.602  6.4554 20.4860 30.6677
 2004 034   102    98   7694 17.6951  2.3518 10.6495  4.2471  4.4381 0.00570 11.652 26.150 22.473 21.399  6.4215 20.4269 30.9386
 2004 035   103    99   7763 34.0114  2.6309 17.3394  8.3389  7.0314 0.00000 11.509 25.581 28.745 24.844  6.4173 20.4535 30.9385
 2004 036   104   100   7856 38.3307  2.4732 19.8072  9.7053  6.4639 0.00000 11.377 25.037 26.055 23.193  6.3834 20.4939 31.1097
 2004 037   105   101   7962 38.2427  2.2590 21.0011  9.9407  5.6870 0.00000 11.258 24.531 25.435 21.285  6.3596 20.4406 31.3121
 2004 038   106   102   8071 35.6936  0.0000 16.6770  8.0210  5.6335 2.47871 11.712 25.414 25.857 21.278  6.3346 20.4070 31.5020
 2004 039   107   103   8183 37.3341  0.3974 18.4086  9.2923  6.1749 0.62590 11.915 25.598 26.539 22.175  6.3227 20.3985 31.5846
 2004 040   108   104   8273 35.0303  2.4592 18.4643  9.1255  6.2825 0.00000 11.775 25.028 27.330 22.466  6.2825 20.4653 31.7692
 2004 041   109   105   8348 35.4805  2.4927 18.3363  8.8876  6.9016 0.00000 11.625 24.432 28.226 23.613  6.2377 20.5714 31.9432
 2004 042   110   106   8421 35.0087  2.4127 17.7449  9.2578  6.8921 0.00000 11.472 23.837 28.474 23.505  6.2414 20.5732 31.9182
 2004 043   111   107   8501 32.6460  2.2217 15.7114  8.4013  8.1037 0.08054 11.349 23.306 31.109 25.997  6.2772 20.5393 31.7280
 2004 044   112   108   8507 15.0268  2.2055  9.1836  3.1354  4.7991 0.00000 11.195 22.729 22.916 21.737  6.2747 20.5265 31.7569
 2004 045   113   109   8577 25.0452  1.7861 13.2807  6.6071  4.7027 0.07495 11.093 22.285 23.755 20.003  6.2809 20.4455 31.7987
 2004 046   114   110   8682 32.2686  1.6108 16.2985  9.2490  4.8895 0.10403 11.007 21.891 25.023 19.271  6.2899 20.3257 31.8625
 2004 047   115   111   8766 29.0920  1.7625 14.4199  7.9101  5.5717 0.09476 10.893 21.439 26.848 21.419  6.2983 20.2879 31.8478
 2004 048   116   112   8836 25.4614  1.7138 12.8155  6.8607  5.0455 0.09453 10.774 20.989 24.824 21.039  6.3059 20.2486 31.8398
 2004 049   117   113   8908 23.9380  1.5977 12.3631  6.8359  4.1542 0.07592 10.649 20.553 23.336 18.872  6.3107 20.1673 31.8908
 2004 050   118   114   8993 27.5712  1.6617 13.6821  7.8659  4.6298 0.06566 10.503 20.082 24.229 19.767  6.3128 20.1155 31.9297
 2004 051   119   115   9067 22.4102  1.2493 11.4838  6.9404  3.2214 0.11561 10.410 19.751 21.282 16.250  6.3274 19.9537 31.9999
 2004 052   120   116   9144 23.9990  1.3382 11.9505  7.2299  3.6954 0.10904 10.295 19.382 22.660 17.593  6.3367 19.8488 32.0466
 2004 053   121   117   9211 21.9404  1.3610 10.9050  6.5207  3.6622 0.09842 10.164 18.993 23.047 17.731  6.3443 19.7635 32.0844
 2004 054   122   118   9288 25.5115  1.4682 12.0229  7.3147  4.5994 0.10114 10.010 18.561 24.812 20.140  6.3493 19.7351 32.0817
 2004 055   123   119   9352 23.0471  1.5652 10.7806  6.4142  4.8270 0.08074  9.826 18.077 25.209 21.251  6.3531 19.7278 32.0656
 2004 056   124   120   9418 23.8777  1.5012 10.7643  6.5812  5.1676 0.09726  9.643 17.613 26.860 21.869  6.3589 19.7231 32.0338
 2004 057   125   121   9477 22.1953  1.5157  9.8120  5.9939  5.3634 0.08124  9.443 17.126 28.615 22.378  6.3639 19.7235 32.0023
 2004 058   126   122   9527 20.8265  1.4816  8.8694  5.4349  5.6626 0.08411  9.238 16.643 30.182 23.199  6.3704 19.7241 31.9607
 2004 059   127   123   9588 18.6301  0.4826  8.5088  3.1359  4.5655 0.36978  9.269 16.646 25.645 21.371  6.3078 19.8540 32.2223
 2004 060   128   124   9375 17.6700  0.2358  8.0124  2.8558  4.2773 0.43497  9.319 16.269 24.901 20.770  6.2500 19.9686 32.4689
 2004 061   129   125   9210 15.9141  0.1897  6.9164  2.4572  4.2724 0.40697  9.373 15.986 25.838 21.353  6.2016 20.0690 32.6712
 2004 062   130   126   9038  8.2579  1.3148  3.9301  1.9240  3.2724 0.00000  9.001 15.057 23.368 19.881  6.2013 20.0630 32.6786
 2004 063   131   127   8922 10.1126  1.1420  4.5904  2.2457  3.2479 0.00000  8.641 14.225 24.815 19.408  6.1867 20.0829 32.7503
 2004 064   132   128   8825  7.8141  1.0181  3.4099  1.3144  3.1874 0.00000  8.292 13.473 26.155 19.504  6.1722 20.1057 32.8180
 2004 065   133   129   8733  5.9689  0.9537  2.2453  1.0330  3.4198 0.00000  7.939 12.768 27.455 21.055  6.1723 20.1051 32.8180
 2004 066   134   130   8642  3.7508  0.9579  0.3169  0.0909  4.3149 0.00000  7.543 12.069 29.937 25.317  6.1725 20.1054 32.8163
 2004 067   135   131   8566  1.4690  0.7851  0.0000  0.0000  2.7510 0.00000  7.197 11.478 21.758 20.550  6.1725 20.1054 32.8163
 2004 068   136   132   8504  1.9887  0.7384  0.0000  0.0000  2.9272 0.00000  6.860 10.924 24.089 21.176  6.1725 20.1054 32.8163
 2004 069   137   133   8453  2.3866  0.6815  0.0873  0.0250  2.9590 0.00000  6.542 10.413 26.020 20.979  6.1725 20.1054 32.8163
 2004 070   138   134   8408  1.4571  0.6675  0.0000  0.0000  3.2346 0.00000  6.220  9.916 26.340 22.684  6.1725 20.1054 32.8163
 2004 071   139   135   8371  1.3988  0.5824  0.0000  0.0000  2.6461 0.00000  5.934  9.479 24.323 20.208  6.1725 20.1054 32.8163

*DSSAT Cropping System Model Ver. 4.6.1.000 -release      OCT 27, 2016; 10:38:10
                                                                                
*RUN   5        : UYSB                      CRGRO046 UYSB1005    1              
 MODEL          : CRGRO046 - Soybean                                            
 EXPERIMENT     : UYSB1005 SN late to create DSS                                
 DATA PATH      :                                                               
 TREATMENT  1   : UYSB                      CRGRO046                            
  
@YEAR DOY   DAS   DAP   TWAD    PHAD    CMAD    CGRD    GRAD    MRAD    CHAD   CL%D   CS%D   TGNN   TGAV    GN%D    GL%D    GC%D
 2004 301     4     0      0  0.0000  0.0000  0.0000  0.0000  0.0000 0.00000  0.000  0.000 16.656 11.188  0.0000  0.0000  0.0000
 2004 302     5     1      0  0.0000  0.0000  0.0000  0.0000  0.0000 0.00000  0.000  0.000 22.688 15.324  0.0000  0.0000  0.0000
 2004 303     6     2      0  0.0000  0.0000  0.0000  0.0000  0.0000 0.00000  0.000  0.000 27.304 20.690  0.0000  0.0000  0.0000
 2004 304     7     3      0  0.0000  0.0000  0.0000  0.0000  0.0000 0.00000  0.000  0.000 19.374 17.586  0.0000  0.0000  0.0000
 2004 305     8     4      0  0.0000  0.0000  0.0000  0.0000  0.0000 0.00000  0.000  0.000 22.821 18.923  0.0000  0.0000  0.0000
 2004 306     9     5      0  0.0000  0.0000  0.0000  0.0000  0.0000 0.00000  0.000  0.000 24.849 19.519  0.0000  0.0000  0.0000
 2004 307    10     6      8  0.0000  0.0005  0.0003  0.0001  0.0000 0.00000  3.943  7.880 27.393 20.417  0.0000  0.0000  0.0000
 2004 308    11     7      8  0.0780  0.0005  0.0483  0.0169  0.0064 0.00000  3.894  7.784 21.525 19.342  0.0000  0.0000  0.0000
 2004 309    12     8      8  0.0857  0.0005  0.0535  0.0182  0.0068 0.00000  3.850  7.699 21.399 19.144  0.0000  0.0000  0.0000
 2004 310    13     9      9  0.0724  0.0003  0.0457  0.0164  0.0037 0.00000  3.831  7.661 17.002 13.495  0.0000  0.0000  0.0000
 2004 311    14    10     10  0.1288  0.0002  0.0837  0.0276  0.0046 0.00000  3.821  7.654 16.593 12.048  0.0000  0.0000  0.0000
 2004 312    15    11     11  0.1680  0.0003  0.1100  0.0342  0.0068 0.00000  3.807  7.647 19.073 13.453  0.0000  0.0000  0.0000
 2004 313    16    12     12  0.2007  0.0006  0.1342  0.0386  0.0119 0.00000  3.790  7.615 23.034 17.808  0.0000  0.0000  0.0000
 2004 314    17    13     13  0.1073  0.0006  0.0651  0.0227  0.0081 0.00000  3.750  7.550 19.034 17.853  0.0000  0.0000  0.0000
 2004 315    18    14     13  0.1219  0.0007  0.0770  0.0238  0.0093 0.00000  3.713  7.493 21.074 18.210  0.0000  0.0000  0.0000
 2004 316    19    15     14  0.1741  0.0006  0.1128  0.0346  0.0097 0.00000  3.690  7.471 18.342 16.408  0.0000  0.0000  0.0000
 2004 317    20    16     16  0.2052  0.0006  0.1339  0.0396  0.0112 0.00000  3.669  7.457 19.136 16.414  0.0000  0.0000  0.0000
 2004 318    21    17     17  0.2243  0.0006  0.1471  0.0429  0.0116 0.00000  3.652  7.451 19.578 15.674  0.0000  0.0000  0.0000
 2004 319    22    18     19  0.2347  0.0008  0.1531  0.0435  0.0148 0.00000  3.626  7.430 21.554 17.578  0.0000  0.0000  0.0000
 2004 320    23    19     21  0.3757  0.0012  0.2553  0.0730  0.0269 0.00000  3.659  7.397 24.341 20.580  0.0000  0.0000  0.0000
 2004 321    24    20     23  0.3648  0.0012  0.2187  0.0797  0.0255 0.00000  3.646  7.359 22.560 19.874  0.0000  0.0000  0.0000
 2004 322    25    21     26  0.4748  0.0011  0.2977  0.1012  0.0263 0.00000  3.652  7.362 21.927 17.592  0.0000  0.0000  0.0000
 2004 323    26    22     29  0.4917  0.0011  0.3115  0.1041  0.0247 0.00000  3.657  7.372 20.558 16.294  0.0000  0.0000  0.0000
 2004 324    27    23     32  0.4522  0.0011  0.2875  0.0960  0.0215 0.00000  3.659  7.378 19.289 15.097  0.0000  0.0000  0.0000
 2004 325    28    24     35  0.5171  0.0013  0.3309  0.1089  0.0257 0.00000  3.656  7.389 20.155 15.605  0.0000  0.0000  0.0000
 2004 326    29    25     39  0.6897  0.0016  0.4422  0.1442  0.0374 0.00000  3.651  7.409 22.402 16.920  0.0000  0.0000  0.0000
 2004 327    30    26     45  0.8821  0.0023  0.5488  0.1941  0.0591 0.00000  3.651  7.405 25.161 19.822  0.0000  0.0000  0.0000
 2004 328    31    27     51  0.9895  0.0032  0.6024  0.2120  0.0894 0.00000  3.638  7.386 30.033 23.295  0.0000  0.0000  0.0000
 2004 329    32    28     54  0.5350  0.0037  0.3233  0.1128  0.0569 0.00000  3.597  7.315 24.796 22.681  0.0000  0.0000  0.0000
 2004 330    33    29     59  0.8447  0.0034  0.5314  0.1775  0.0668 0.00000  3.570  7.308 23.388 20.987  0.0000  0.0000  0.0000
 2004 331    34    30     66  1.2398  0.0039  0.7717  0.2705  0.0951 0.00000  3.563  7.318 25.301 21.610  0.0000  0.0000  0.0000
 2004 332    35    31     73  1.2218  0.0043  0.7575  0.2705  0.0931 0.00000  3.556  7.312 24.704 21.012  0.0000  0.0000  0.0000
 2004 333    36    32     83  1.5461  0.0050  0.9632  0.3345  0.1181 0.00000  3.549  7.323 25.352 21.517  0.0000  0.0000  0.0000
 2004 334    37    33     95  2.0476  0.0053  1.2924  0.4408  0.1405 0.00000  3.549  7.360 25.111 20.630  0.0000  0.0000  0.0000
 2004 335    38    34    109  2.2522  0.0057  1.4355  0.4810  0.1433 0.00000  3.547  7.393 24.027 19.582  0.0000  0.0000  0.0000
 2004 336    39    35    124  2.4797  0.0075  1.5442  0.5404  0.1872 0.00000  3.549  7.392 26.958 21.258  0.0000  0.0000  0.0000
 2004 337    40    36    141  2.7725  0.0102  1.6777  0.5884  0.2818 0.00000  3.540  7.368 31.226 25.168  0.0000  0.0000  0.0000
 2004 338    41    37    157  2.8820  0.0127  1.7325  0.5982  0.3214 0.00000  3.518  7.331 30.860 26.487  0.0000  0.0000  0.0000
 2004 339    42    38    174  2.7962  0.0128  1.7260  0.5801  0.2616 0.00000  3.494  7.305 27.204 23.476  0.0000  0.0000  0.0000
 2004 340    43    39    195  3.6871  0.0128  2.2082  0.8640  0.3115 0.00000  3.527  7.279 28.640 22.332  0.0000  0.0000  0.0000
 2004 341    44    40    217  3.6998  0.0153  2.2131  0.8641  0.3209 0.00000  3.539  7.241 26.567 22.732  0.0000  0.0000  0.0000
 2004 342    45    41    231  2.6353  0.0167  1.5615  0.6085  0.2582 0.00000  3.524  7.178 24.304 22.440  0.0000  0.0000  0.0000
 2004 343    46    42    258  4.6611  0.0190  2.7806  1.0811  0.4196 0.00000  3.531  7.154 26.724 23.570  0.0000  0.0000  0.0000
 2004 344    47    43    298  6.6345  0.0173  4.0566  1.5743  0.4389 0.00000  3.563  7.186 23.991 20.479  0.0000  0.0000  0.0000
 2004 345    48    44    345  7.8190  0.0190  4.8012  1.8601  0.4875 0.00000  3.590  7.221 23.999 19.698  0.0000  0.0000  0.0000
[...]
 2010 058   126   122   7092 13.6157  1.1933  6.5620  3.0128  3.2330 0.00000  8.991 15.089 24.022 20.601  6.3433 20.2541 31.6003
 2010 059   127   123   6979 10.4112  1.0859  4.5993  2.3957  3.3689 0.00000  8.606 14.173 25.048 22.163  6.3286 20.2823 31.6640
 2010 060   128   124   6876  8.6314  0.8364  2.7569  1.4925  4.8034 0.04594  8.292 13.450 34.611 27.062  6.3328 20.2809 31.6388
 2010 061   129   125   6791  6.0113  0.8694  2.3099  1.0930  3.2143 0.00000  7.923 12.691 27.560 22.897  6.3325 20.2822 31.6400
 2010 062   130   126   6710  2.9000  0.7783  0.6319  0.1813  2.8860 0.00000  7.554 12.000 26.909 22.603  6.3323 20.2825 31.6406
 2010 063   131   127   6643  3.5712  0.7513  0.6838  0.1962  3.4725 0.00000  7.180 11.337 28.694 25.279  6.3326 20.2829 31.6382
 2010 064   132   128   6591  3.0915  0.6520  0.6268  0.1798  2.9583 0.00000  6.840 10.752 27.784 23.232  6.3326 20.2833 31.6381
 2010 065   133   129   6544  2.3593  0.6012  0.0817  0.0234  2.8582 0.00000  6.503 10.210 27.419 23.188  6.3326 20.2834 31.6381
 2010 066   134   130   6506  1.8806  0.5505  0.0000  0.0000  2.7302 0.00000  6.185  9.713 27.421 22.765  6.3326 20.2834 31.6381
 2010 067   135   131   6473  1.0929  0.5258  0.0000  0.0000  2.7416 0.00000  5.873  9.239 26.105 23.441  6.3326 20.2834 31.6381
 2010 068   136   132   6445  1.0791  0.4892  0.0000  0.0000  2.6799 0.00000  5.578  8.798 25.833 23.240  6.3326 20.2834 31.6381

*DSSAT Cropping System Model Ver. 4.6.1.000 -release      OCT 27, 2016; 10:38:10
                                                                                
*RUN  11        : UYSB                      CRGRO046 UYSB1005    1              
 MODEL          : CRGRO046 - Soybean                                            
 EXPERIMENT     : UYSB1005 SN late to create DSS                                
 DATA PATH      :                                                               
 TREATMENT  1   : UYSB                      CRGRO046                            
  
@YEAR DOY   DAS   DAP   TWAD    PHAD    CMAD    CGRD    GRAD    MRAD    CHAD   CL%D   CS%D   TGNN   TGAV    GN%D    GL%D    GC%D
 2010 301     4     0      0  0.0000  0.0000  0.0000  0.0000  0.0000 0.00000  0.000  0.000 23.556 18.088  0.0000  0.0000  0.0000
 2010 302     5     1      0  0.0000  0.0000  0.0000  0.0000  0.0000 0.00000  0.000  0.000 19.226 15.865  0.0000  0.0000  0.0000
 2010 303     6     2      0  0.0000  0.0000  0.0000  0.0000  0.0000 0.00000  0.000  0.000 19.620 15.008  0.0000  0.0000  0.0000
 2010 304     7     3      0  0.0000  0.0000  0.0000  0.0000  0.0000 0.00000  0.000  0.000 22.248 16.706  0.0000  0.0000  0.0000
 2010 305     8     4      0  0.0000  0.0000  0.0000  0.0000  0.0000 0.00000  0.000  0.000 22.900 17.714  0.0000  0.0000  0.0000
 2010 306     9     5      0  0.0000  0.0000  0.0000  0.0000  0.0000 0.00000  0.000  0.000 24.242 17.410  0.0000  0.0000  0.0000
 2010 307    10     6      0  0.0000  0.0000  0.0000  0.0000  0.0000 0.00000  0.000  0.000 27.535 20.416  0.0000  0.0000  0.0000
 2010 308    11     7      8  0.0000  0.0006  0.0004  0.0002  0.0000 0.00000  3.936  7.866 28.717 22.277  0.0000  0.0000  0.0000
 2010 309    12     8      9  0.1897  0.0005  0.1207  0.0387  0.0118 0.00000  3.894  7.796 24.711 19.236  0.0000  0.0000  0.0000
 2010 310    13     9     10  0.1954  0.0005  0.1257  0.0389  0.0110 0.00000  3.862  7.747 23.660 17.541  0.0000  0.0000  0.0000
 2010 311    14    10     11  0.2351  0.0007  0.1472  0.0452  0.0197 0.00000  3.818  7.680 29.741 22.296  0.0000  0.0000  0.0000
 2010 312    15    11     13  0.2626  0.0009  0.1619  0.0526  0.0269 0.00000  3.771  7.611 32.607 25.054  0.0000  0.0000  0.0000
 2010 313    16    12     13  0.0654  0.0003  0.0412  0.0153  0.0034 0.00000  3.762  7.587 13.638 11.204  0.0000  0.0000  0.0000
 2010 314    17    13     15  0.1936  0.0004  0.1279  0.0399  0.0081 0.00000  3.750  7.585 19.246 12.766  0.0000  0.0000  0.0000
 2010 315    18    14     16  0.1833  0.0004  0.1209  0.0375  0.0074 0.00000  3.740  7.580 17.977 12.319  0.0000  0.0000  0.0000
 2010 316    19    15     17  0.2114  0.0005  0.1390  0.0424  0.0097 0.00000  3.725  7.568 18.891 14.021  0.0000  0.0000  0.0000
 2010 317    20    16     19  0.2576  0.0006  0.1696  0.0506  0.0127 0.00000  3.708  7.555 20.270 15.077  0.0000  0.0000  0.0000
 2010 318    21    17     20  0.2486  0.0008  0.1628  0.0491  0.0143 0.00000  3.686  7.529 21.029 16.230  0.0000  0.0000  0.0000
 2010 319    22    18     22  0.2837  0.0011  0.1848  0.0555  0.0189 0.00000  3.655  7.493 21.979 18.326  0.0000  0.0000  0.0000
 2010 320    23    19     24  0.3259  0.0011  0.2012  0.0757  0.0207 0.00000  3.656  7.445 21.480 18.077  0.0000  0.0000  0.0000
 2010 321    24    20     26  0.3920  0.0012  0.2417  0.0917  0.0250 0.00000  3.658  7.407 22.970 18.242  0.0000  0.0000  0.0000
 2010 322    25    21     29  0.4800  0.0013  0.3008  0.1106  0.0284 0.00000  3.661  7.395 23.607 17.410  0.0000  0.0000  0.0000
 2010 323    26    22     31  0.3219  0.0014  0.2000  0.0726  0.0233 0.00000  3.644  7.357 23.771 17.466  0.0000  0.0000  0.0000
 2010 324    27    23     34  0.5671  0.0020  0.3512  0.1234  0.0468 0.00000  3.625  7.335 27.225 21.564  0.0000  0.0000  0.0000
 2010 325    28    24     39  0.6950  0.0027  0.4254  0.1499  0.0642 0.00000  3.603  7.310 26.525 23.981  0.0000  0.0000  0.0000
 2010 326    29    25     43  0.7916  0.0023  0.4925  0.1780  0.0556 0.00000  3.602  7.315 24.641 20.305  0.0000  0.0000  0.0000
 2010 327    30    26     48  0.7463  0.0026  0.4662  0.1633  0.0555 0.00000  3.588  7.309 24.309 20.403  0.0000  0.0000  0.0000
 2010 328    31    27     52  0.7911  0.0032  0.4887  0.1704  0.0682 0.00000  3.568  7.292 26.815 21.870  0.0000  0.0000  0.0000
 2010 329    32    28     61  1.2860  0.0029  0.8187  0.2768  0.0816 0.00000  3.570  7.348 25.633 19.146  0.0000  0.0000  0.0000
 2010 330    33    29     69  1.4403  0.0042  0.8865  0.3166  0.1186 0.00000  3.573  7.354 28.514 22.493  0.0000  0.0000  0.0000
 2010 331    34    30     78  1.4883  0.0050  0.8979  0.3293  0.1407 0.00000  3.573  7.338 30.884 23.716  0.0000  0.0000  0.0000
 2010 332    35    31     84  1.0347  0.0036  0.6512  0.2349  0.0615 0.00000  3.569  7.331 20.180 16.954  0.0000  0.0000  0.0000
 2010 333    36    32     92  1.2235  0.0035  0.7798  0.2735  0.0654 0.00000  3.570  7.344 20.878 15.788  0.0000  0.0000  0.0000
 2010 334    37    33    105  2.1766  0.0047  1.3887  0.4678  0.1332 0.00000  3.573  7.393 26.324 17.901  0.0000  0.0000  0.0000
 2010 335    38    34    120  2.3942  0.0074  1.4863  0.5086  0.2005 0.00000  3.564  7.394 29.209 22.327  0.0000  0.0000  0.0000
 2010 336    39    35    134  2.5077  0.0095  1.5085  0.5358  0.2615 0.00000  3.555  7.365 32.132 25.035  0.0000  0.0000  0.0000
 2010 337    40    36    150  2.6469  0.0105  1.6242  0.5605  0.2458 0.00000  3.538  7.343 28.822 23.553  0.0000  0.0000  0.0000
 2010 338    41    37    169  3.1605  0.0101  1.9738  0.6707  0.2503 0.00000  3.532  7.352 28.399 21.194  0.0000  0.0000  0.0000
 2010 339    42    38    191  3.6274  0.0127  2.2603  0.7574  0.3064 0.00000  3.518  7.352 28.385 22.471  0.0000  0.0000  0.0000
 2010 340    43    39    214  3.8992  0.0128  2.3530  0.9208  0.3013 0.00000  3.551  7.327 28.052 20.703  0.0000  0.0000  0.0000
 2010 341    44    40    241  4.5362  0.0131  2.7263  1.0652  0.3672 0.00000  3.580  7.318 30.583 20.367  0.0000  0.0000  0.0000
 2010 342    45    41    265  4.1268  0.0158  2.4944  0.9729  0.3179 0.00000  3.586  7.287 26.885 20.146  0.0000  0.0000  0.0000
 2010 343    46    42    299  6.0248  0.0241  3.5357  1.3757  0.6306 0.00000  3.586  7.246 30.369 25.997  0.0000  0.0000  0.0000
 2010 344    47    43    335  6.2501  0.0202  3.7165  1.4435  0.5772 0.00000  3.595  7.239 32.154 22.370  0.0000  0.0000  0.0000
 2010 345    48    44    368  5.7793  0.0263  3.4198  1.3255  0.5695 0.00000  3.584  7.200 30.118 23.452  0.0000  0.0000  0.0000
 2010 346    49    45    385  2.9192  0.0151  1.7953  0.6951  0.1862 0.00000  3.576  7.178 19.240 15.047  0.0000  0.0000  0.0000
 2010 347    50    46    433  7.6985  0.0169  4.7874  1.8513  0.3892 0.00000  3.599  7.215 23.348 15.142  0.0000  0.0000  0.0000
 2010 348    51    47    497 10.7032  0.0251  6.6663  2.4687  0.6880 0.00000  3.640  7.247 27.130 18.602  0.0000  0.0000  0.0000
 2010 349    52    48    565 11.8349  0.0386  7.0479  2.7602  1.0042 0.00000  3.636  7.242 29.351 22.758  0.0000  0.0000  0.0000
 2010 350    53    49    645 13.5673  0.0461  8.1239  3.0656  1.1973 0.00000  3.629  7.235 29.538 23.447  0.0000  0.0000  0.0000
 2010 351    54    50    732 15.3837  0.0574  9.3221  3.3518  1.5154 0.00000  3.648  7.216 30.505 25.130  0.0000  0.0000  0.0000
 2010 352    55    51    811 14.3218  0.0675  8.1316  3.2943  1.5144 0.01659  3.630  7.221 30.085 25.463  0.0000  0.0000  0.0000
 2010 353    56    52    860  8.8278  0.0588  5.2306  2.0235  0.7928 0.03650  3.630  7.263 22.902 20.753  0.0000  0.0000  0.0000
 2010 354    57    53    950 15.7222  0.0798  9.1914  3.4881  1.5629 0.12042  3.693  7.492 27.143 24.563  0.0000  0.0000  0.0000
 2010 355    58    54   1080 22.3038  0.0831 13.0405  4.9209  2.0455 0.24282  3.830  7.930 29.686 23.990  0.0000  0.0000  0.0000
 2010 356    59    55   1223 25.1103  0.1053 14.5260  5.5319  2.5431 0.35466  3.997  8.423 30.806 25.432  0.0000  0.0000  0.0000
 2010 357    60    56   1376 27.2364  0.1242 15.4876  5.6568  2.7237 0.46914  4.178  8.946 30.419 25.080  0.0000  0.0000  0.0000
 2010 358    61    57   1440 13.6597  0.1409  8.1950  2.5116  1.5662 0.29874  4.289  9.167 25.696 23.259  0.0000  0.0000  0.0000
 2010 359    62    58   1605 29.7825  0.1652 16.1794  6.1605  3.2330 0.69234  4.471  9.758 30.831 26.066  0.0000  0.0000  0.0000
 2010 360    63    59   1787 32.4732  0.1775 17.9988  6.5405  3.2930 0.87437  4.688 10.394 31.032 24.654  0.0000  0.0000  0.0000
 2010 361    64    60   1967 33.5868  0.2234 18.1785  7.3051  3.7445 0.99645  4.901 10.982 31.437 25.883  0.0000  0.0000  0.0000
 2010 362    65    61   2168 35.4290  0.2260 20.9523  7.3166  3.1103 1.25965  5.182 11.659 27.656 22.424  0.0000  0.0000  0.0000
 2010 363    66    62   2374 34.0723  0.2955 21.0010  6.3800  3.5537 1.39709  5.416 12.265 28.321 24.343  0.0000  0.0000  0.0000
 2010 364    67    63   2617 38.2986  0.0000 22.2927  5.9656  3.3930 3.51462  6.214 14.481 27.060 22.115  0.0000  0.0000  0.0000
 2010 365    68    64   2859 38.8406  0.0000 22.1138  5.7318  4.0990 3.81218  6.965 16.509 28.765 24.106  0.0000  0.0000  0.0000
 2011 001    69    65   3039 33.2517  0.5117 18.3393  6.8904  3.8576 1.57997  7.020 16.653 29.164 23.967  0.0000  0.0000  0.0000
 2011 002    70    66   3188 29.2644  0.5282 13.5730  7.2283  3.2647 1.21651  6.961 16.668 25.884 22.622  0.0000  0.0000  0.0000
 2011 003    71    67   3268 19.5495  0.5103 11.4841  3.5366  2.4790 1.02440  7.094 16.768 23.424 21.345  0.0000  0.0000  0.0000
 2011 004    72    68   3424 29.5220  0.6251 16.6060  5.5013  3.9147 1.59975  7.182 16.937 28.546 24.388  0.0000  0.0000  0.0000
 2011 005    73    69   3562 28.8160  0.6833 13.0878  6.7766  4.1177 1.19719  7.125 16.931 28.852 24.981  0.0000  0.0000  0.0000
 2011 006    74    70   3783 43.2820  0.6965 23.9423  8.2527  5.3729 2.55985  7.359 17.368 30.294 25.204  0.0000  0.0000  0.0000
 2011 007    75    71   4006 43.4724  0.8714 23.2517  7.8162  7.0241 2.56689  7.509 17.700 33.141 28.983  0.0000  0.0000  0.0000
 2011 008    76    72   4223 39.9947  0.8751 22.9216  6.9007  5.8373 2.40925  7.645 17.987 30.699 26.433  0.0000  0.0000  0.0000
 2011 009    77    73   4422 41.1323  0.9552 19.7505  8.8054  6.3924 2.05854  7.663 18.122 31.556 27.183  0.0000  0.0000  0.0000
 2011 010    78    74   4547 27.3629  0.0000 14.1671  4.4661  4.1793 1.82843  7.941 18.713 28.881 23.254  0.0000  0.0000  0.0000
 2011 011    79    75   4679 28.1376  0.3254 15.1992  4.8034  4.1257 1.22292  8.070 18.942 25.813 23.197  0.0000  0.0000  0.0000
 2011 012    80    76   4851 35.4615  0.6343 19.5591  5.9874  4.8692 1.71099  8.196 19.180 27.055 23.757  0.0000  0.0000  0.0000
 2011 013    81    77   5077 43.0699  1.0033 24.0600  7.7650  5.3216 2.42601  8.320 19.434 27.441 23.319  0.0000  0.0000  0.0000
 2011 014    82    78   5293 45.0271  1.0814 22.1609 10.0934  5.7284 1.87571  8.329 19.513 27.765 23.715  0.0000  0.0000  0.0000
 2011 015    83    79   5526 46.2867  0.0000 23.1073  7.8896  7.0275 3.34055  8.711 20.414 31.054 25.930  0.0000  0.0000  0.0000
 2011 016    84    80   5676 37.1654  1.3613 16.6414  8.3947  7.1749 0.81648  8.596 20.194 32.624 27.427  0.0000  0.0000  0.0000
 2011 017    85    81   5831 37.2557  1.2691 17.2126  8.9229  5.9178 0.55096  8.475 19.956 28.848 24.511  0.0000  0.0000  0.0000
 2011 018    86    82   6019 44.1856  1.3143 23.9565  8.3506  6.6647 2.14247  8.570 20.105 30.061 24.722  0.0000  0.0000  0.0000
 2011 019    87    83   6215 44.8628  1.4073 23.9261  8.5808  7.0264 1.94846  8.643 20.195 30.530 25.119  6.4685 20.5000 30.5718
 2011 020    88    84   6411 45.3448  0.0000 22.4159  7.9110  6.9906 3.10624  9.032 21.101 29.790 24.810  6.4516 20.5000 30.6774
 2011 021    89    85   6625 44.9211  0.0000 18.2485  6.8430  5.7369 8.90528 10.084 23.874 28.035 21.622  6.3293 20.3436 31.5980
 2011 022    90    86   6752 42.9891  1.9234 20.6474 10.1968  7.3420 0.29409  9.950 23.496 30.020 25.398  6.4004 20.4115 31.0858
 2011 023    91    87   6887 44.9751  1.9728 23.3749  9.5042  7.8079 0.88083  9.895 23.239 30.502 25.845  6.4509 20.4453 30.7365
 2011 024    92    88   6987 40.8842  2.2048 20.3365  8.5710  9.3173 0.09194  9.762 22.788 32.989 29.084  6.5760 20.4638 29.9364
 2011 025    93    89   7087 39.9080  2.0924 20.5246  8.5784  8.1180 0.00000  9.633 22.341 31.088 26.933  6.5925 20.4752 29.8215
 2011 026    94    90   7093 21.7528  1.8877 10.3716  4.4029  6.7809 0.05980  9.502 21.936 33.817 26.402  6.5898 20.4815 29.8320
 2011 027    95    91   7178 36.7608  2.0496 18.1495  8.3134  7.7260 0.00000  9.381 21.492 30.680 26.526  6.5906 20.4862 29.8225
 2011 028    96    92   7277 41.4428  2.0743 20.2648  9.5184  8.5437 0.00000  9.258 21.038 31.448 27.222  6.6045 20.4892 29.7327
 2011 029    97    93   7376 41.3628  2.0227 21.0236  9.3602  8.2001 0.00000  9.138 20.591 30.874 26.469  6.6012 20.4914 29.7512
 2011 030    98    94   7388 24.2068  1.9736 12.5315  5.2941  6.6602 0.00000  9.021 20.151 30.413 25.866  6.5888 20.4930 29.8270
 2011 031    99    95   7356 19.7341  1.9576 10.4813  4.1414  6.4559 0.00000  8.909 19.707 30.636 26.161  6.5839 20.4942 29.8565
 2011 032   100    96   7445 35.1163  1.8049 18.9939  8.3733  6.2726 0.00000  8.817 19.291 26.626 23.654  6.5398 20.4952 30.1312
 2011 033   101    97   7620 43.4167  0.0000 18.1730  7.8452  6.1488 7.28169  9.805 21.812 28.104 21.553  6.4901 20.4465 30.4902
 2011 034   102    98   7714 41.5112  2.0194 20.2574 10.2860  8.0877 0.00000  9.699 21.350 32.183 25.346  6.4899 20.4538 30.4843
 2011 035   103    99   7774 33.8844  2.0566 16.9276  8.5864  7.1229 0.00000  9.587 20.869 29.345 24.943  6.4848 20.4602 30.5100
 2011 036   104   100   7884 40.4823  0.0000 17.9541  8.5567  8.7379 2.14522 10.000 21.672 32.082 26.786  6.5011 20.4652 30.4029
 2011 037   105   101   7957 34.0254  1.8089 16.7337  8.9022  7.2690 0.10028  9.936 21.284 28.950 25.086  6.5241 20.4132 30.3115
 2011 038   106   102   7998 31.1592  1.7757 15.4807  7.8907  7.0869 0.09896  9.873 20.895 28.931 25.032  6.5418 20.3721 30.2414
 2011 039   107   103   7990 17.6997  1.7764 10.5624  3.8587  4.5732 0.01406  9.784 20.457 22.396 21.394  6.5231 20.3490 30.3820
 2011 040   108   104   8032 21.4501  1.6196 12.0370  5.0644  4.6106 0.04257  9.710 20.061 22.066 20.993  6.5092 20.3041 30.5131
 2011 041   109   105   8060 21.7602  1.6108 11.9919  5.0940  4.8333 0.04630  9.633 19.658 23.741 21.381  6.4987 20.2728 30.6100
 2011 042   110   106   8171 36.1242  1.4778 17.6449  9.3292  6.3748 0.11250  9.581 19.310 25.211 23.030  6.5012 20.2475 30.6200
 2011 043   111   107   8247 27.4225  1.5039 14.0241  6.9583  5.3682 0.07144  9.506 18.927 24.686 21.720  6.4950 20.2206 30.6859
 2011 044   112   108   8365 35.7974  1.6841 18.0114  9.3322  5.6874 0.00000  9.379 18.447 25.272 21.305  6.4529 20.2521 30.9172
 2011 045   113   109   8480 35.0031  1.5425 17.3236  9.7348  5.4264 0.02533  9.264 18.009 25.063 20.847  6.4386 20.2211 31.0376
 2011 046   114   110   8596 32.9763  1.4486 16.7233  9.6651  4.4486 0.00000  9.141 17.577 24.460 18.315  6.4217 20.1136 31.2507
 2011 047   115   111   8703 33.5032  1.2351 15.8181  9.4011  5.7172 0.11496  9.069 17.255 26.837 21.622  6.4250 20.0868 31.2570
 2011 048   116   112   8795 32.6146  1.3852 14.6235  8.7327  7.2329 0.11392  8.969 16.876 29.291 25.184  6.4415 20.0777 31.1627
 2011 049   117   113   8876 29.6422  1.4369 13.3147  7.8460  6.9543 0.08806  8.843 16.459 29.270 25.128  6.4532 20.0739 31.0935
 2011 050   118   114   8965 29.1036  1.2642 13.4739  8.0707  5.5231 0.09682  8.732 16.093 25.678 22.287  6.4555 20.0629 31.0901
 2011 051   119   115   9040 25.7842  1.2902 11.9508  7.0307  5.2871 0.08120  8.601 15.703 25.323 22.290  6.4569 20.0549 31.0894
 2011 052   120   116   9070 16.3849  1.5482  7.7279  3.7906  5.3923 0.01598  8.403 15.184 27.368 23.978  6.4567 20.0612 31.0847
 2011 053   121   117   9130 23.3119  1.3185 10.2980  6.1120  5.8006 0.07411  8.243 14.762 27.224 23.977  6.4618 20.0579 31.0556
 2011 054   122   118   9134 11.8870  1.4203  5.9283  2.6883  4.1144 0.00000  8.037 14.261 22.575 21.576  6.4577 20.0598 31.0796
 2011 055   123   119   9178 18.2803  1.1892  8.3529  4.8379  4.3936 0.05725  7.874 13.861 23.849 21.389  6.4577 20.0491 31.0903
 2011 056   124   120   9226 18.5970  1.2724  8.4172  4.7928  4.6754 0.03272  7.681 13.412 24.506 22.189  6.4560 20.0489 31.1012
 2011 057   125   121   9297 23.2193  1.0111 10.1780  6.4266  4.5709 0.09134  7.541 13.082 24.211 21.218  6.4579 20.0310 31.1069
 2011 058   126   122   9364 20.3683  0.9402  9.3128  6.0360  3.5659 0.07239  7.401 12.764 23.536 18.299  6.4590 19.9776 31.1538
 2011 059   127   123   9429 20.8013  0.8870  9.0497  5.9805  4.0529 0.09441  7.270 12.473 26.025 19.400  6.4615 19.9412 31.1747
 2011 060   128   124   9495 19.3929  0.5817  8.8610  3.7946  4.2566 0.19827  7.220 12.347 25.123 20.814  6.3996 20.0557 31.4468
 2011 061   129   125   9297 18.7065  0.0000  7.6166  2.9536  4.6848 0.88162  7.379 12.287 27.211 21.978  6.3437 20.1687 31.6833
 2011 062   130   126   9127 15.1943  1.0788  6.7389  2.8724  4.5504 0.02188  7.080 11.417 27.871 22.569  6.3036 20.2523 31.8500
 2011 063   131   127   8985 12.0673  1.0059  5.0188  2.2725  4.2690 0.00000  6.760 10.601 27.255 22.843  6.2788 20.3051 31.9524
 2011 064   132   128   8872  9.5361  0.8106  4.0241  1.9262  3.2678 0.00000  6.474  9.910 25.733 19.936  6.2613 20.3316 32.0353
 2011 065   133   129   8765  7.0831  0.7656  2.4683  1.2916  3.7083 0.00000  6.179  9.269 27.539 22.455  6.2612 20.3319 32.0353
 2011 066   134   130   8669  4.9242  0.7039  1.2799  0.4381  3.8846 0.00000  5.886  8.684 28.726 23.857  6.2615 20.3324 32.0331
 2011 067   135   131   8585  3.9407  0.6559  0.3308  0.0949  4.1858 0.00000  5.584  8.144 29.773 25.473  6.2617 20.3325 32.0319
 2011 068   136   132   8514  2.8060  0.5856  0.0000  0.0000  3.8273 0.00000  5.297  7.661 29.101 24.661  6.2617 20.3325 32.0319
 2011 069   137   133   8456  2.2068  0.5289  0.0000  0.0000  3.4449 0.00000  5.028  7.228 27.330 23.638  6.2617 20.3325 32.0319
 2011 070   138   134   8406  2.0617  0.4930  0.0000  0.0000  3.6531 0.00000  4.768  6.828 28.902 24.500  6.2617 20.3325 32.0319
 2011 071   139   135   8365  1.5684  0.4590  0.0000  0.0000  3.5605 0.00000  4.521  6.459 28.336 24.469  6.2617 20.3325 32.0319
 2011 072   140   136   8332  1.0936  0.3405  0.0000  0.0000  1.7889 0.00000  4.333  6.178 20.567 16.347  6.2617 20.3325 32.0319
