*PLANT C OUTPUT FILE

*DSSAT Cropping System Model Ver. 4.6.1.000 -release      OCT 28, 2016; 12:06:18
                                                                                
*RUN   1        : UYSB                      CRGRO046 UYSB1014    1              
 MODEL          : CRGRO046 - Soybean                                            
 EXPERIMENT     : UYSB1014 SN late to create DSS                                
 DATA PATH      :                                                               
 TREATMENT  1   : UYSB                      CRGRO046                            
  
@YEAR DOY   DAS   DAP   TWAD    PHAD    CMAD    CGRD    GRAD    MRAD    CHAD   CL%D   CS%D   TGNN   TGAV    GN%D    GL%D    GC%D
 2000 302     4     0      0  0.0000  0.0000  0.0000  0.0000  0.0000 0.00000  0.000  0.000 18.506 14.610  0.0000  0.0000  0.0000
 2000 303     5     1      0  0.0000  0.0000  0.0000  0.0000  0.0000 0.00000  0.000  0.000 16.370 12.616  0.0000  0.0000  0.0000
 2000 304     6     2      0  0.0000  0.0000  0.0000  0.0000  0.0000 0.00000  0.000  0.000 24.543 18.250  0.0000  0.0000  0.0000
 2000 305     7     3      0  0.0000  0.0000  0.0000  0.0000  0.0000 0.00000  0.000  0.000 24.543 19.465  0.0000  0.0000  0.0000
 2000 306     8     4      0  0.0000  0.0000  0.0000  0.0000  0.0000 0.00000  0.000  0.000 23.242 19.629  0.0000  0.0000  0.0000
 2000 307     9     5      0  0.0000  0.0000  0.0000  0.0000  0.0000 0.00000  0.000  0.000 21.248 18.135  0.0000  0.0000  0.0000
 2000 308    10     6      0  0.0000  0.0000  0.0000  0.0000  0.0000 0.00000  0.000  0.000 21.391 16.382  0.0000  0.0000  0.0000
 2000 309    11     7      8  0.0000  0.0004  0.0002  0.0001  0.0000 0.00000  3.959  7.915 20.369 16.289  0.0000  0.0000  0.0000
 2000 310    12     8      9  0.1634  0.0004  0.1042  0.0348  0.0087 0.00000  3.923  7.847 22.002 17.243  0.0000  0.0000  0.0000
 2000 311    13     9     10  0.1908  0.0005  0.1220  0.0396  0.0117 0.00000  3.881  7.778 23.235 19.048  0.0000  0.0000  0.0000
 2000 312    14    10     11  0.1282  0.0006  0.0813  0.0263  0.0095 0.00000  3.837  7.700 22.380 19.301  0.0000  0.0000  0.0000
 2000 313    15    11     12  0.1847  0.0007  0.1178  0.0369  0.0142 0.00000  3.791  7.631 23.868 21.004  0.0000  0.0000  0.0000
 2000 314    16    12     12  0.1098  0.0006  0.0694  0.0229  0.0087 0.00000  3.753  7.563 20.093 18.554  0.0000  0.0000  0.0000
 2000 315    17    13     14  0.2529  0.0007  0.1646  0.0522  0.0151 0.00000  3.724  7.545 22.049 18.612  0.0000  0.0000  0.0000
 2000 316    18    14     16  0.2891  0.0008  0.1933  0.0557  0.0196 0.00000  3.706  7.523 24.014 19.968  0.0000  0.0000  0.0000
 2000 317    19    15     18  0.3067  0.0011  0.1934  0.0610  0.0237 0.00000  3.664  7.485 24.582 21.466  0.0000  0.0000  0.0000
 2000 318    20    16     19  0.2484  0.0008  0.1616  0.0497  0.0145 0.00000  3.641  7.463 20.315 17.020  0.0000  0.0000  0.0000
 2000 319    21    17     20  0.1716  0.0004  0.1118  0.0363  0.0071 0.00000  3.638  7.458 14.872 11.971  0.0000  0.0000  0.0000
 2000 320    22    18     21  0.1573  0.0004  0.0960  0.0395  0.0064 0.00000  3.654  7.440 14.988 10.833  0.0000  0.0000  0.0000
 2000 321    23    19     23  0.3140  0.0007  0.1943  0.0753  0.0149 0.00000  3.672  7.421 20.254 14.451  0.0000  0.0000  0.0000
 2000 322    24    20     26  0.4465  0.0011  0.2774  0.1024  0.0260 0.00000  3.679  7.405 23.490 17.508  0.0000  0.0000  0.0000
 2000 323    25    21     29  0.5604  0.0014  0.3498  0.1242  0.0362 0.00000  3.676  7.398 25.430 19.017  0.0000  0.0000  0.0000
 2000 324    26    22     33  0.6256  0.0019  0.3880  0.1354  0.0479 0.00000  3.662  7.383 27.187 21.168  0.0000  0.0000  0.0000
 2000 325    27    23     36  0.5576  0.0014  0.3553  0.1271  0.0279 0.00000  3.661  7.391 19.830 15.996  0.0000  0.0000  0.0000
 2000 326    28    24     41  0.7449  0.0018  0.4764  0.1620  0.0438 0.00000  3.652  7.410 24.001 17.730  0.0000  0.0000  0.0000
 2000 327    29    25     45  0.7731  0.0028  0.4727  0.1755  0.0621 0.00000  3.640  7.376 26.367 21.565  0.0000  0.0000  0.0000
 2000 328    30    26     51  0.9317  0.0034  0.5979  0.1890  0.0917 0.00000  3.656  7.347 30.129 24.431  0.0000  0.0000  0.0000
 2000 329    31    27     55  0.6412  0.0023  0.3872  0.1484  0.0381 0.00000  3.637  7.335 19.478 16.790  0.0000  0.0000  0.0000
 2000 330    32    28     61  1.0046  0.0023  0.6421  0.2165  0.0515 0.00000  3.633  7.368 21.400 16.132  0.0000  0.0000  0.0000
 2000 331    33    29     70  1.3748  0.0038  0.8699  0.2830  0.0956 0.00000  3.618  7.391 25.795 20.240  0.0000  0.0000  0.0000
 2000 332    34    30     75  0.8945  0.0046  0.5440  0.1914  0.0796 0.00000  3.596  7.339 25.824 21.129  0.0000  0.0000  0.0000
 2000 333    35    31     79  0.6824  0.0043  0.4163  0.1492  0.0582 0.00000  3.573  7.287 20.672 19.274  0.0000  0.0000  0.0000
 2000 334    36    32     84  0.9746  0.0035  0.6116  0.2168  0.0581 0.00000  3.569  7.283 19.824 16.706  0.0000  0.0000  0.0000
 2000 335    37    33     95  1.6213  0.0037  1.0345  0.3628  0.0827 0.00000  3.577  7.325 20.854 16.481  0.0000  0.0000  0.0000
 2000 336    38    34    105  1.6903  0.0042  1.0821  0.3717  0.0898 0.00000  3.577  7.356 21.779 16.402  0.0000  0.0000  0.0000
 2000 337    39    35    120  2.3690  0.0063  1.5053  0.5061  0.1557 0.00000  3.570  7.385 25.114 19.558  0.0000  0.0000  0.0000
 2000 338    40    36    132  2.0724  0.0076  1.2916  0.4538  0.1543 0.00000  3.561  7.368 25.557 20.109  0.0000  0.0000  0.0000
 2000 339    41    37    141  1.4567  0.0072  0.9123  0.3177  0.1040 0.00000  3.545  7.337 20.807 18.154  0.0000  0.0000  0.0000
 2000 340    42    38    157  2.5506  0.0073  1.6260  0.5515  0.1459 0.00000  3.545  7.355 21.598 17.584  0.0000  0.0000  0.0000
 2000 341    43    39    176  3.1552  0.0106  1.9717  0.6582  0.2476 0.00000  3.536  7.357 27.782 21.043  0.0000  0.0000  0.0000
 2000 342    44    40    195  3.3331  0.0141  2.0501  0.6792  0.3198 0.00000  3.513  7.333 29.193 23.817  0.0000  0.0000  0.0000
 2000 343    45    41    213  3.1435  0.0168  1.8311  0.7132  0.3509 0.00000  3.515  7.262 30.375 25.214  0.0000  0.0000  0.0000
 2000 344    46    42    239  4.6605  0.0189  2.7354  1.0671  0.4850 0.00000  3.530  7.222 30.157 25.749  0.0000  0.0000  0.0000
 2000 345    47    43    268  4.9427  0.0189  2.9565  1.1509  0.4303 0.00000  3.543  7.198 27.592 23.005  0.0000  0.0000  0.0000
 2000 346    48    44    295  4.7700  0.0231  2.8126  1.0924  0.4847 0.00000  3.537  7.154 28.460 24.590  0.0000  0.0000  0.0000
 2000 347    49    45    333  6.5266  0.0240  3.8682  1.4991  0.6282 0.00000  3.546  7.145 30.301 24.389  0.0000  0.0000  0.0000
 2000 348    50    46    382  8.2874  0.0000  4.7823  1.4051  0.9184 0.52114  5.900  9.203 31.855 27.161  0.0000  0.0000  0.0000
 2000 349    51    47    424  8.5013  0.0451  3.9996  2.2432  0.8283 0.00000  5.508  8.905 28.362 25.030  0.0000  0.0000  0.0000
 2000 350    52    48    484  9.5472  0.0420  6.3833  1.8986  0.7889 0.02392  5.298  8.758 27.550 22.570  0.0000  0.0000  0.0000
 2000 351    53    49    532  9.0559  0.0263  4.4436  2.4751  0.4222 0.03105  5.106  8.741 19.597 15.548  0.0000  0.0000  0.0000
 2000 352    54    50    601 11.9154  0.0361  6.9287  2.8273  0.6663 0.07587  5.018  8.841 23.032 17.729  0.0000  0.0000  0.0000
 2000 353    55    51    688 15.0743  0.0543  8.9174  3.4311  1.1150 0.14238  4.987  9.063 27.073 21.340  0.0000  0.0000  0.0000
 2000 354    56    52    775 14.5717  0.0535  8.7687  3.4061  0.9290 0.17919  4.993  9.335 24.539 18.986  0.0000  0.0000  0.0000
 2000 355    57    53    877 17.4436  0.0712 10.3102  4.0309  1.2914 0.26244  5.030  9.687 26.820 20.944  0.0000  0.0000  0.0000
 2000 356    58    54    919  7.7341  0.0677  4.4949  1.7979  0.6174 0.13398  5.032  9.796 20.269 18.298  0.0000  0.0000  0.0000
 2000 357    59    55   1033 19.8513  0.0983 11.4553  4.5023  1.6857 0.40690  5.130 10.266 27.752 22.772  0.0000  0.0000  0.0000
 2000 358    60    56   1090 10.2729  0.0802  5.9237  2.4013  0.7405 0.23591  5.172 10.472 19.635 17.844  0.0000  0.0000  0.0000
 2000 359    61    57   1214 20.8501  0.0938 12.2473  4.7419  1.3499 0.54546  5.315 11.011 24.278 18.832  0.0000  0.0000  0.0000
 2000 360    62    58   1342 23.3061  0.1612 12.8573  5.1419  2.4471 0.65608  5.449 11.508 29.750 25.307  0.0000  0.0000  0.0000
 2000 361    63    59   1479 25.9990  0.1985 14.5275  5.2954  3.2895 0.83308  5.649 12.069 33.183 28.023  0.0000  0.0000  0.0000
 2000 362    64    60   1542 12.7970  0.1926  7.3981  2.5359  1.5363 0.47149  5.703 12.273 26.735 22.793  0.0000  0.0000  0.0000
 2000 363    65    61   1652 20.0892  0.1825 10.4139  4.6063  1.7499 0.72561  5.789 12.661 24.681 21.133  0.0000  0.0000  0.0000
 2000 364    66    62   1754 19.7265  0.1851 10.4736  4.4487  1.6087 0.80010  5.915 13.074 22.847 20.016  0.0000  0.0000  0.0000
 2000 365    67    63   1923 30.4992  0.2097 16.5809  6.6615  2.2783 1.36521  6.152 13.780 24.639 20.446  0.0000  0.0000  0.0000
 2000 366    68    64   2094 32.1797  0.2804 16.9734  7.0749  2.9521 1.48543  6.367 14.405 27.597 22.759  0.0000  0.0000  0.0000
 2001 001    69    65   2277 33.6785  0.3285 18.0711  7.4181  3.2625 1.68332  6.583 15.018 28.110 23.308  0.0000  0.0000  0.0000
 2001 002    70    66   2466 34.4788  0.3701 19.7675  6.8562  3.3950 1.91107  6.865 15.663 28.155 23.209  0.0000  0.0000  0.0000
 2001 003    71    67   2683 35.2608  0.4275 21.4801  6.2349  3.8949 2.18368  7.104 16.291 30.266 24.280  0.0000  0.0000  0.0000
 2001 004    72    68   2834 29.0880  0.5673 15.8096  5.3787  4.4036 1.67328  7.232 16.613 31.600 27.585  0.0000  0.0000  0.0000
 2001 005    73    69   3051 37.0590  0.0000 20.3265  5.5764  4.8239 3.35718  7.791 18.062 30.645 26.487  0.0000  0.0000  0.0000
 2001 006    74    70   3264 37.0801  0.0000 19.7737  5.4569  5.3249 3.51523  8.331 19.436 32.069 27.444  0.0000  0.0000  0.0000
 2001 007    75    71   3359 21.6356  0.7677 12.1784  3.7623  3.4575 1.25670  8.363 19.447 27.446 24.901  0.0000  0.0000  0.0000
 2001 008    76    72   3534 31.5642  0.7148 18.1055  5.7588  3.7384 2.01236  8.472 19.680 26.974 23.174  0.0000  0.0000  0.0000
 2001 009    77    73   3744 36.5410  0.0000 19.2312  5.4038  4.3491 3.87743  9.009 21.030 28.216 23.735  0.0000  0.0000  0.0000
 2001 010    78    74   3807 16.8419  0.6596  9.5700  3.0919  2.2110 0.65086  9.001 20.946 21.809 19.444  0.0000  0.0000  0.0000
 2001 011    79    75   4013 34.5906  0.1225 19.7093  5.7223  2.6611 2.46800  9.241 21.502 21.303 17.862  0.0000  0.0000  0.0000
 2001 012    80    76   4220 34.1174  0.0000 18.3602  5.5317  2.5551 3.77058  9.687 22.630 21.832 16.886  0.0000  0.0000  0.0000
 2001 013    81    77   4414 35.5963  0.8543 19.7321  6.8421  3.6631 2.42997  9.781 22.810 25.634 20.437  0.0000  0.0000  0.0000
 2001 014    82    78   4550 29.7012  1.1982 16.0304  5.2610  4.9176 1.63931  9.793 22.760 28.955 25.407  0.0000  0.0000  0.0000
 2001 015    83    79   4744 37.6577  1.1973 20.8525  6.6309  5.1888 2.33058  9.860 22.854 27.252 24.493  0.0000  0.0000  0.0000
 2001 016    84    80   4920 35.8184  1.2513 19.3416  6.2853  5.3745 2.07353  9.907 22.899 28.523 24.904  0.0000  0.0000  0.0000
 2001 017    85    81   5032 27.5447  1.2054 14.4623  5.5813  4.3217 0.75291  9.871 22.723 25.626 23.333  0.0000  0.0000  0.0000
 2001 018    86    82   5111 24.4736  1.2701 13.2665  4.7481  4.1500 0.34268  9.804 22.458 24.521 23.267  0.0000  0.0000  0.0000
 2001 019    87    83   5210 27.2863  1.2188 14.4101  5.5529  4.0744 0.51335  9.756 22.247 25.248 22.238  6.2379 20.3496 32.1637
 2001 020    88    84   5412 40.5901  0.6167 22.4293  7.4746  4.1254 2.50562  9.959 22.670 24.193 20.000  6.1988 19.8027 32.9551
 2001 021    89    85   5602 40.6316  1.1201 22.0262  8.2129  4.0627 2.39339 10.070 22.882 24.386 19.406  6.1897 19.4698 33.3443
 2001 022    90    86   5685 26.0558  1.0980 14.0474  5.4236  4.0980 0.17511 10.025 22.667 26.265 21.500  6.1961 19.7682 33.0060
 2001 023    91    87   5856 40.5732  1.5702 21.5935  8.0713  6.0443 1.64919 10.033 22.624 28.757 24.243  6.2697 20.0444 32.2698
 2001 024    92    88   5996 40.0883  1.5972 20.1230  8.2867  6.2368 1.48928 10.035 22.555 29.996 24.300  6.3089 20.1855 31.8840
 2001 025    93    89   6122 39.1263  1.7785 19.0605  8.1791  6.9513 1.17361  9.995 22.380 30.549 26.036  6.3784 20.2764 31.3587
 2001 026    94    90   6171 34.8163  1.8553 17.2567  7.2496  7.1154 0.44337  9.889 22.029 31.575 26.883  6.4402 20.3326 30.9159
 2001 027    95    91   6198 19.9284  1.7087 10.6741  4.2836  4.5818 0.00000  9.760 21.611 24.955 23.559  6.4079 20.3817 31.0686
 2001 028    96    92   6219 16.3550  1.4231  8.9879  3.7282  3.2900 0.00000  9.662 21.264 21.166 20.056  6.3508 20.1700 31.6374
 2001 029    97    93   6354 38.0081  1.3849 19.5184  9.2410  4.3520 0.18124  9.588 20.969 24.837 19.573  6.3167 19.9869 32.0336
 2001 030    98    94   6466 38.5489  1.5208 19.7425  9.2167  4.8945 0.09598  9.492 20.618 24.894 21.063  6.2934 19.9884 32.1780
 2001 031    99    95   6557 36.5555  1.7384 18.0784  8.6072  6.2568 0.00000  9.363 20.182 28.750 24.311  6.3120 20.0800 31.9703
 2001 032   100    96   6602 30.0104  1.8236 14.7480  6.9027  6.3223 0.00000  9.223 19.720 28.870 25.505  6.3445 20.1516 31.6953
 2001 033   101    97   6678 37.3855  1.8196 17.5688  8.8446  7.4319 0.00000  9.082 19.251 30.726 26.502  6.3839 20.2074 31.3932
 2001 034   102    98   6775 35.3171  1.5311 17.7894  9.0056  4.9817 0.00000  8.969 18.855 24.491 21.448  6.3545 20.1955 31.5892
 2001 035   103    99   6882 37.1064  1.5135 18.4539  9.3798  5.2322 0.00000  8.857 18.458 26.531 21.342  6.3321 20.1815 31.7429
 2001 036   104   100   6982 36.2538  1.6276 17.9777  9.1444  5.8387 0.00000  8.732 18.027 26.241 23.092  6.3266 20.2228 31.7358
 2001 037   105   101   7060 36.2562  1.6140 17.5237  9.0085  6.4318 0.00000  8.606 17.594 29.390 23.880  6.3306 20.2571 31.6764
 2001 038   106   102   7148 35.8456  1.7327 16.6165  8.6681  8.0925 0.00000  8.463 17.118 32.285 27.276  6.3694 20.2858 31.4052
 2001 039   107   103   7171 21.2643  1.5569 10.8998  4.9373  5.8879 0.03255  8.346 16.701 28.514 25.080  6.3902 20.2842 31.2769
 2001 040   108   104   7231 30.7269  1.6403 14.5249  7.6908  7.1526 0.00000  8.211 16.235 30.604 26.169  6.4159 20.2955 31.1053
 2001 041   109   105   7237 18.2502  1.6144  9.6060  3.5709  6.2899 0.00420  8.076 15.766 29.891 26.422  6.4293 20.3079 31.0092
 2001 042   110   106   7284 27.8330  1.3381 13.0391  6.5609  7.4935 0.07790  7.990 15.406 31.551 27.261  6.4699 20.2837 30.7796
 2001 043   111   107   7359 25.0267  0.9797 13.0740  6.5515  3.9939 0.07827  7.941 15.148 23.079 19.362  6.4646 20.1488 30.9477
 2001 044   112   108   7452 31.1024  0.9448 15.3989  8.5108  4.8248 0.10183  7.900 14.908 25.658 20.440  6.4612 20.0657 31.0516
 2001 045   113   109   7534 30.4343  1.0389 14.6744  8.1181  5.6474 0.09902  7.842 14.629 26.919 22.596  6.4651 20.0524 31.0405
 2001 046   114   110   7613 27.2972  1.0341 13.0884  7.0276  5.6370 0.10052  7.779 14.346 26.750 22.998  6.4722 20.0409 31.0079
 2001 047   115   111   7708 29.9210  0.9573 14.3128  8.1313  5.3012 0.10096  7.720 14.082 26.078 21.684  6.4724 20.0159 31.0315
 2001 048   116   112   7790 27.3691  1.0000 12.9400  7.2034  5.4909 0.09286  7.644 13.793 27.097 22.526  6.4753 20.0065 31.0229
 2001 049   117   113   7851 24.8581  1.1304 11.2162  6.0791  6.6282 0.08011  7.538 13.446 29.504 25.684  6.4898 20.0038 30.9349
 2001 050   118   114   7915 25.1331  1.0636 11.0894  6.2214  6.6376 0.08910  7.434 13.119 30.059 25.668  6.5043 19.9983 30.8498
 2001 051   119   115   7986 25.8559  1.0271 11.4824  6.6661  6.1966 0.08251  7.324 12.795 29.318 24.606  6.5125 19.9960 30.8007
 2001 052   120   116   8032 19.2613  1.1013  8.8600  4.6329  5.2972 0.04966  7.182 12.420 27.168 23.778  6.5141 19.9983 30.7888
 2001 053   121   117   8091 24.1588  1.0503 10.0236  5.8393  7.0574 0.07998  7.049 12.072 30.882 27.065  6.5292 19.9942 30.6982
 2001 054   122   118   8142 20.8231  1.0188  8.9503  5.1406  5.8317 0.06441  6.908 11.722 28.970 24.904  6.5351 19.9927 30.6631
 2001 055   123   119   8144 11.7491  1.1421  5.3043  2.2806  4.8535 0.01316  6.719 11.290 27.607 24.113  6.5339 19.9983 30.6645
 2001 056   124   120   8146  9.6902  1.1068  4.5346  1.7262  4.2435 0.00125  6.525 10.858 25.762 22.874  6.5302 20.0049 30.6812
 2001 057   125   121   8154 11.5710  1.1217  5.0658  2.0229  4.8441 0.00023  6.318 10.412 26.649 24.439  6.5282 20.0131 30.6855
 2001 058   126   122   8179 14.4950  1.0572  5.9331  2.8618  5.4756 0.01523  6.120  9.993 28.537 25.616  6.5298 20.0186 30.6704
 2001 059   127   123   8220 17.1939  1.0571  7.2848  3.1457  5.6344 0.00000  5.908  9.559 29.262 25.486  6.4775 20.1361 30.8797
 2001 060   128   124   8001 15.4281  1.0216  6.1103  2.4421  6.1648 0.00000  5.621  8.613 31.630 27.108  6.4319 20.2435 31.0574
 2001 061   129   125   7794  8.0773  0.8090  3.1958  1.3748  4.0652 0.00000  5.360  7.812 25.650 23.479  6.4308 20.2459 31.0615
 2001 062   130   126   7645 10.2367  0.7175  3.5196  1.5832  5.0694 0.00000  5.097  7.101 30.609 26.303  6.4266 20.2604 31.0732
 2001 063   131   127   7519  8.3561  0.6171  2.5692  1.0527  4.9394 0.00000  4.843  6.482 31.345 26.684  6.4280 20.2622 31.0626
 2001 064   132   128   7406  5.3753  0.5369  1.0171  0.2918  4.6557 0.00000  4.594  5.942 31.606 26.875  6.4286 20.2630 31.0582
 2001 065   133   129   7314  4.1028  0.4607  0.6386  0.1832  3.7676 0.00000  4.360  5.478 27.998 24.621  6.4286 20.2634 31.0578
 2001 066   134   130   7240  3.5921  0.3943  0.5934  0.1702  3.2426 0.00000  4.146  5.080 26.566 22.905  6.4283 20.2638 31.0591
 2001 067   135   131   7176  2.3148  0.3372  0.0000  0.0000  2.7463 0.00000  3.946  4.741 25.918 21.050  6.4283 20.2638 31.0591
 2001 068   136   132   7123  1.8842  0.3247  0.0000  0.0000  3.1148 0.00000  3.746  4.428 27.025 23.082  6.4283 20.2638 31.0591
 2001 069   137   133   7078  1.6580  0.3124  0.0000  0.0000  3.7270 0.00000  3.545  4.140 29.906 25.716  6.4283 20.2638 31.0591
 2001 070   138   134   7040  1.0748  0.2837  0.0000  0.0000  3.2949 0.00000  3.358  3.883 27.430 24.413  6.4283 20.2638 31.0591
 2001 071   139   135   7008  1.1231  0.2530  0.0000  0.0000  2.9345 0.00000  3.186  3.658 26.331 22.889  6.4283 20.2638 31.0591

*DSSAT Cropping System Model Ver. 4.6.1.000 -release      OCT 28, 2016; 12:06:18
                                                                                
*RUN   2        : UYSB                      CRGRO046 UYSB1014    1              
 MODEL          : CRGRO046 - Soybean                                            
 EXPERIMENT     : UYSB1014 SN late to create DSS                                
 DATA PATH      :                                                               
 TREATMENT  1   : UYSB                      CRGRO046                            
  
@YEAR DOY   DAS   DAP   TWAD    PHAD    CMAD    CGRD    GRAD    MRAD    CHAD   CL%D   CS%D   TGNN   TGAV    GN%D    GL%D    GC%D
 2001 302     4     0      0  0.0000  0.0000  0.0000  0.0000  0.0000 0.00000  0.000  0.000 22.952 20.879  0.0000  0.0000  0.0000
 2001 303     5     1      0  0.0000  0.0000  0.0000  0.0000  0.0000 0.00000  0.000  0.000 20.378 17.625  0.0000  0.0000  0.0000
 2001 304     6     2      0  0.0000  0.0000  0.0000  0.0000  0.0000 0.00000  0.000  0.000 20.718 17.071  0.0000  0.0000  0.0000
 2001 305     7     3      0  0.0000  0.0000  0.0000  0.0000  0.0000 0.00000  0.000  0.000 22.030 17.166  0.0000  0.0000  0.0000
 2001 306     8     4      0  0.0000  0.0000  0.0000  0.0000  0.0000 0.00000  0.000  0.000 20.184 16.428  0.0000  0.0000  0.0000
 2001 307     9     5      0  0.0000  0.0000  0.0000  0.0000  0.0000 0.00000  0.000  0.000 20.729 16.329  0.0000  0.0000  0.0000
 2001 308    10     6      0  0.0000  0.0000  0.0000  0.0000  0.0000 0.00000  0.000  0.000 22.006 17.534  0.0000  0.0000  0.0000
 2001 309    11     7      8  0.0000  0.0005  0.0003  0.0001  0.0000 0.00000  3.941  7.877 26.353 20.485  0.0000  0.0000  0.0000
 2001 310    12     8      8  0.1131  0.0006  0.0719  0.0235  0.0098 0.00000  3.893  7.770 25.216 21.745  0.0000  0.0000  0.0000
 2001 311    13     9      9  0.0670  0.0004  0.0399  0.0160  0.0046 0.00000  3.857  7.701 17.402 16.399  0.0000  0.0000  0.0000
 2001 312    14    10     10  0.1530  0.0004  0.0982  0.0326  0.0086 0.00000  3.824  7.658 20.523 17.551  0.0000  0.0000  0.0000
 2001 313    15    11     11  0.1897  0.0005  0.1385  0.0333  0.0112 0.00000  3.810  7.630 22.431 18.206  0.0000  0.0000  0.0000
 2001 314    16    12     12  0.1497  0.0007  0.1016  0.0267  0.0127 0.00000  3.777  7.561 24.143 21.207  0.0000  0.0000  0.0000
 2001 315    17    13     14  0.3031  0.0007  0.1882  0.0624  0.0186 0.00000  3.737  7.553 23.999 19.416  0.0000  0.0000  0.0000
 2001 316    18    14     16  0.3238  0.0009  0.2056  0.0627  0.0234 0.00000  3.698  7.528 25.963 21.022  0.0000  0.0000  0.0000
 2001 317    19    15     17  0.1775  0.0009  0.1116  0.0340  0.0145 0.00000  3.656  7.469 22.810 19.766  0.0000  0.0000  0.0000
 2001 318    20    16     19  0.3153  0.0010  0.2035  0.0590  0.0227 0.00000  3.621  7.446 23.253 20.567  0.0000  0.0000  0.0000
 2001 319    21    17     21  0.3884  0.0011  0.2372  0.0886  0.0250 0.00000  3.640  7.408 23.426 19.379  0.0000  0.0000  0.0000
 2001 320    22    18     23  0.3254  0.0008  0.1993  0.0788  0.0162 0.00000  3.658  7.381 18.819 15.774  0.0000  0.0000  0.0000
 2001 321    23    19     26  0.4495  0.0010  0.2829  0.1020  0.0233 0.00000  3.667  7.386 22.213 16.302  0.0000  0.0000  0.0000
 2001 322    24    20     29  0.6046  0.0015  0.3764  0.1342  0.0424 0.00000  3.662  7.385 26.580 20.310  0.0000  0.0000  0.0000
 2001 323    25    21     33  0.6115  0.0020  0.3781  0.1328  0.0511 0.00000  3.642  7.368 27.861 22.308  0.0000  0.0000  0.0000
 2001 324    26    22     38  0.7825  0.0024  0.4743  0.1733  0.0718 0.00000  3.633  7.355 30.191 23.920  0.0000  0.0000  0.0000
 2001 325    27    23     41  0.5954  0.0028  0.3603  0.1318  0.0562 0.00000  3.606  7.307 25.811 23.231  0.0000  0.0000  0.0000
 2001 326    28    24     47  0.9377  0.0030  0.5749  0.2043  0.0823 0.00000  3.592  7.312 27.927 23.556  0.0000  0.0000  0.0000
 2001 327    29    25     53  1.1677  0.0037  0.7072  0.2468  0.1201 0.00000  3.576  7.322 31.275 25.971  0.0000  0.0000  0.0000
 2001 328    30    26     56  0.4741  0.0024  0.2939  0.1092  0.0324 0.00000  3.564  7.292 19.217 16.637  0.0000  0.0000  0.0000
 2001 329    31    27     60  0.6702  0.0020  0.4129  0.1641  0.0334 0.00000  3.578  7.284 18.046 14.749  0.0000  0.0000  0.0000
 2001 330    32    28     64  0.5986  0.0031  0.3885  0.1279  0.0444 0.00000  3.588  7.249 19.715 18.174  0.0000  0.0000  0.0000
 2001 331    33    29     74  1.7471  0.0039  1.0844  0.3777  0.1112 0.00000  3.588  7.323 23.551 20.253  0.0000  0.0000  0.0000
 2001 332    34    30     85  1.7626  0.0038  1.1231  0.3760  0.0961 0.00000  3.593  7.375 22.041 17.919  0.0000  0.0000  0.0000
 2001 333    35    31     96  1.7283  0.0043  1.1255  0.3576  0.0952 0.00000  3.615  7.401 21.511 17.568  0.0000  0.0000  0.0000
 2001 334    36    32    100  0.6630  0.0037  0.3934  0.1548  0.0434 0.00000  3.599  7.364 16.605 15.028  0.0000  0.0000  0.0000
 2001 335    37    33    113  2.2216  0.0055  1.4039  0.4710  0.1288 0.00000  3.600  7.391 22.608 18.378  0.0000  0.0000  0.0000
 2001 336    38    34    129  2.5283  0.0067  1.5997  0.5225  0.1573 0.00000  3.596  7.409 23.616 19.135  0.0000  0.0000  0.0000
 2001 337    39    35    136  1.2409  0.0066  0.7751  0.2598  0.0872 0.00000  3.578  7.372 19.785 17.348  0.0000  0.0000  0.0000
 2001 338    40    36    145  1.4053  0.0076  0.8801  0.2880  0.1044 0.00000  3.557  7.337 21.185 18.209  0.0000  0.0000  0.0000
 2001 339    41    37    158  2.1421  0.0091  1.3547  0.4329  0.1543 0.00000  3.535  7.326 21.795 19.644  0.0000  0.0000  0.0000
 2001 340    42    38    176  3.0771  0.0104  1.8715  0.7013  0.2150 0.00000  3.557  7.305 23.626 20.221  0.0000  0.0000  0.0000
 2001 341    43    39    199  3.9636  0.0128  2.3948  0.9038  0.3025 0.00000  3.577  7.290 26.465 21.554  0.0000  0.0000  0.0000
 2001 342    44    40    218  3.1175  0.0083  1.9429  0.7382  0.1458 0.00000  3.594  7.297 17.910 15.258  0.0000  0.0000  0.0000
 2001 343    45    41    239  3.3155  0.0074  2.0735  0.8065  0.1434 0.00000  3.613  7.312 19.348 13.578  0.0000  0.0000  0.0000
 2001 344    46    42    268  4.8774  0.0132  3.0066  1.1694  0.2818 0.00000  3.626  7.316 22.784 17.910  0.0000  0.0000  0.0000
 2001 345    47    43    298  4.9766  0.0149  3.0632  1.1916  0.2974 0.00000  3.631  7.312 23.065 17.869  0.0000  0.0000  0.0000
 2001 346    48    44    332  5.7555  0.0233  3.4518  1.3401  0.4917 0.00000  3.620  7.278 27.360 22.415  0.0000  0.0000  0.0000
 2001 347    49    45    370  6.5616  0.0284  3.9121  1.5153  0.6011 0.00000  3.604  7.239 26.914 23.725  0.0000  0.0000  0.0000
 2001 348    50    46    418  8.3239  0.0303  5.0068  1.9351  0.6931 0.00000  3.599  7.225 25.774 23.015  0.0000  0.0000  0.0000
 2001 349    51    47    481 10.4821  0.0300  6.3626  2.4602  0.7276 0.03249  3.658  7.402 24.495 20.984  0.0000  0.0000  0.0000
 2001 350    52    48    547 11.0637  0.0325  6.7122  2.6008  0.7229 0.06560  3.746  7.670 24.117 19.853  0.0000  0.0000  0.0000
 2001 351    53    49    631 14.1039  0.0407  8.5316  3.2644  0.9834 0.12502  3.885  8.070 26.252 20.734  0.0000  0.0000  0.0000
 2001 352    54    50    724 15.6375  0.0496  9.5268  3.5343  1.1045 0.18745  4.062  8.532 25.925 20.873  0.0000  0.0000  0.0000
 2001 353    55    51    798 13.2499  0.0677  7.3759  3.1275  1.2119 0.18661  4.153  8.859 28.125 23.073  0.0000  0.0000  0.0000
 2001 354    56    52    874 13.6424  0.0845  7.6096  3.0959  1.4511 0.23922  4.258  9.218 29.365 24.958  0.0000  0.0000  0.0000
 2001 355    57    53    916  7.6367  0.0614  4.3291  1.8051  0.5993 0.15488  4.312  9.411 19.775 18.091  0.0000  0.0000  0.0000
 2001 356    58    54   1035 20.0490  0.0782 11.6586  4.6608  1.3516 0.47754  4.547 10.095 23.210 20.272  0.0000  0.0000  0.0000
 2001 357    59    55   1164 21.9382  0.0832 12.6705  5.0525  1.3800 0.57801  4.790 10.769 24.620 18.744  0.0000  0.0000  0.0000
 2001 358    60    56   1305 24.1391  0.1126 13.9088  5.5457  1.7094 0.70797  5.029 11.426 25.265 20.320  0.0000  0.0000  0.0000
 2001 359    61    57   1456 26.3399  0.1413 15.4367  5.7369  2.0172 0.87070  5.305 12.097 26.358 21.127  0.0000  0.0000  0.0000
 2001 360    62    58   1620 27.7385  0.1791 16.3931  5.7647  2.4404 1.01308  5.550 12.730 28.284 22.587  0.0000  0.0000  0.0000
 2001 361    63    59   1790 28.7939  0.2324 17.2342  5.6222  2.9856 1.17318  5.790 13.336 29.723 24.671  0.0000  0.0000  0.0000
 2001 362    64    60   1970 29.5534  0.2616 18.0892  5.5738  3.0009 1.34418  6.027 13.938 29.109 24.021  0.0000  0.0000  0.0000
 2001 363    65    61   2152 29.9826  0.3120 18.3058  5.5361  3.1797 1.47920  6.251 14.503 28.481 24.396  0.0000  0.0000  0.0000
 2001 364    66    62   2322 30.8805  0.3623 16.8117  6.4510  3.5625 1.50437  6.409 14.970 29.720 25.205  0.0000  0.0000  0.0000
 2001 365    67    63   2464 27.0919  0.4053 13.3110  6.1400  3.3942 1.24240  6.455 15.236 29.645 25.202  0.0000  0.0000  0.0000
 2002 001    68    64   2658 35.7118  0.3939 20.0538  7.1187  3.4011 1.98830  6.734 15.851 26.851 22.694  0.0000  0.0000  0.0000
 2002 002    69    65   2864 34.6452  0.4524 20.6455  6.4519  3.5002 2.06961  6.958 16.391 26.783 22.984  0.0000  0.0000  0.0000
 2002 003    70    66   3093 37.7177  0.0000 22.0582  6.3045  3.5554 2.53205  7.338 17.316 25.968 22.133  0.0000  0.0000  0.0000
 2002 004    71    67   3311 35.4566  0.5415 21.7060  6.2725  3.5392 2.33191  7.532 17.777 26.380 22.042  0.0000  0.0000  0.0000
 2002 005    72    68   3392 17.1044  0.5305  9.8491  3.2335  2.2159 0.90819  7.570 17.822 21.498 20.422  0.0000  0.0000  0.0000
 2002 006    73    69   3554 30.0043  0.5851 16.8099  5.7685  3.1427 1.84101  7.701 18.116 23.874 21.401  0.0000  0.0000  0.0000
 2002 007    74    70   3774 36.1883  0.5114 21.5993  6.7045  2.8844 2.44062  7.893 18.581 22.443 18.822  0.0000  0.0000  0.0000
 2002 008    75    71   4025 40.8653  0.6234 24.5370  7.2401  3.7589 2.92424  8.103 19.092 26.339 20.317  0.0000  0.0000  0.0000
 2002 009    76    72   4241 38.7758  0.7464 21.8003  7.3452  4.0102 2.59013  8.261 19.454 25.650 21.528  0.0000  0.0000  0.0000
 2002 010    77    73   4468 40.1139  0.8451 23.0209  7.2768  4.5550 2.67484  8.409 19.790 27.292 22.489  0.0000  0.0000  0.0000
 2002 011    78    74   4667 38.4686  0.9962 20.9125  7.0218  5.2495 2.46496  8.523 20.029 28.765 24.428  0.0000  0.0000  0.0000
 2002 012    79    75   4878 42.0120  1.0818 22.1436  7.7220  6.1041 2.64164  8.641 20.279 30.446 25.535  0.0000  0.0000  0.0000
 2002 013    80    76   5083 40.6171  1.1811 21.8856  7.2164  6.4328 2.50354  8.738 20.473 30.865 26.277  0.0000  0.0000  0.0000
 2002 014    81    77   5190 24.1572  0.4463 12.8111  4.8604  3.0617 0.53903  8.775 20.496 22.505 19.351  0.0000  0.0000  0.0000
 2002 015    82    78   5378 35.1943  0.7131 19.3153  7.0770  3.0305 1.93098  8.873 20.709 21.627 17.218  0.0000  0.0000  0.0000
 2002 016    83    79   5575 37.0267  0.7795 20.3447  7.4466  3.3194 2.10698  8.978 20.939 22.269 17.718  0.0000  0.0000  0.0000
 2002 017    84    80   5771 37.5368  0.9414 20.8823  7.2673  3.8261 2.16245  9.086 21.145 23.770 18.968  0.0000  0.0000  0.0000
 2002 018    85    81   5963 40.0596  1.0200 22.0599  7.8883  4.0165 2.26671  9.194 21.352 23.299 19.106  0.0000  0.0000  0.0000
 2002 019    86    82   6161 42.6497  1.2498 23.8590  8.0566  5.0857 2.36002  9.287 21.520 26.602 21.120  6.1922 20.0169 32.7818
 2002 020    87    83   6302 39.0485  1.5950 20.1098  7.1353  7.1948 1.83511  9.311 21.511 32.151 26.023  6.4424 20.3561 30.8790
 2002 021    88    84   6404 33.2845  1.6699 17.2468  6.7561  5.9636 0.63748  9.243 21.262 27.761 24.536  6.4280 20.4376 30.8874
 2002 022    89    85   6544 40.5340  1.7291 20.4258  7.9876  7.2476 1.29004  9.220 21.134 30.506 25.849  6.4724 20.4640 30.5833
 2002 023    90    86   6669 38.5948  1.7072 19.1830  7.8681  6.9666 1.06453  9.184 20.974 30.829 25.204  6.4737 20.4763 30.5632
 2002 024    91    87   6693 26.4590  1.4625 13.9543  5.1589  5.7324 0.09392  9.106 20.686 28.042 24.531  6.4561 20.4836 30.6658
 2002 025    92    88   6796 39.0109  1.7675 18.9545  8.6829  6.5031 0.40570  9.015 20.379 27.911 24.328  6.4385 20.4886 30.7705
 2002 026    93    89   6853 24.9403  1.6339 13.7195  4.9793  4.7844 0.00000  8.903 20.014 24.825 22.318  6.3852 20.4553 31.1372
 2002 027    94    90   6891 30.7215  1.7115 15.7342  6.8818  5.5077 0.00000  8.785 19.628 25.651 23.215  6.3656 20.4625 31.2526
 2002 028    95    91   6995 40.9164  1.6978 20.0352  9.2209  6.6424 0.38879  8.698 19.332 29.128 23.828  6.3630 20.4710 31.2600
 2002 029    96    92   7087 40.5600  1.7338 19.6533  9.1133  7.1960 0.36920  8.606 19.023 30.742 24.726  6.3776 20.4769 31.1633
 2002 030    97    93   7162 38.9364  1.7698 18.9265  9.1360  6.8731 0.00000  8.479 18.613 29.085 24.466  6.3843 20.4816 31.1167
 2002 031    98    94   7225 33.5450  1.7249 16.6959  7.8339  5.9606 0.00000  8.355 18.210 26.487 23.408  6.3713 20.4843 31.1953
 2002 032    99    95   7328 39.7771  1.5333 20.4336  9.5704  5.2845 0.00000  8.249 17.850 24.155 21.005  6.3386 20.3925 31.4910
 2002 033   100    96   7442 35.7410  1.3462 18.5572  9.3002  4.2031 0.00000  8.159 17.532 22.927 18.452  6.3177 20.0897 31.9245
 2002 034   101    97   7549 34.4679  1.3172 17.8539  9.0072  4.0185 0.00000  8.073 17.221 22.565 17.948  6.3050 19.8030 32.2907
 2002 035   102    98   7663 37.9618  1.4885 19.1890  9.6554  5.1774 0.00000  7.970 16.865 25.174 20.343  6.2875 19.7853 32.4178
 2002 036   103    99   7739 29.6792  1.5712 15.2285  7.3894  5.2900 0.00000  7.859 16.486 26.026 21.589  6.2769 19.8376 32.4318
 2002 037   104   100   7801 29.2736  1.5452 15.0232  7.3845  5.1694 0.00000  7.751 16.108 24.837 21.438  6.2675 19.8744 32.4537
 2002 038   105   101   7882 32.9776  1.4869 16.7641  8.5217  5.1828 0.00000  7.648 15.740 24.674 20.882  6.2579 19.8800 32.5081
 2002 039   106   102   7945 29.6166  1.5109 15.2167  7.6181  5.3050 0.00000  7.540 15.358 24.801 21.581  6.2521 19.9140 32.5102
 2002 040   107   103   7970 17.6876  1.2585 10.4215  4.3135  3.7032 0.01954  7.459 15.044 21.386 18.883  6.2529 19.8124 32.6071
 2002 041   108   104   8048 32.0359  1.4979 16.1974  8.4367  5.7992 0.00000  7.349 14.650 25.365 22.326  6.2582 19.8591 32.5272
 2002 042   109   105   8122 32.3237  1.4347 16.1558  8.5372  5.7685 0.00000  7.240 14.264 26.647 21.856  6.2609 19.8846 32.4846
 2002 043   110   106   8162 20.9253  1.3126 11.4265  4.7597  4.9935 0.02752  7.146 13.914 23.725 21.831  6.2640 19.8964 32.4535
 2002 044   111   107   8238 31.0286  1.1713 15.0806  7.9121  6.4993 0.08763  7.078 13.623 27.572 23.605  6.2870 19.9088 32.2974
 2002 045   112   108   8297 32.2321  1.0736 14.9737  8.1603  7.2512 0.11855  7.023 13.366 29.457 24.741  6.3197 19.9073 32.0948
 2002 046   113   109   8377 30.8404  1.0935 14.4330  7.8369  6.8898 0.09842  6.954 13.086 28.654 24.188  6.3409 19.9117 31.9574
 2002 047   114   110   8470 29.4696  0.9063 14.3562  7.9663  5.1200 0.10630  6.903 12.861 24.359 20.644  6.3482 19.8706 31.9529
 2002 048   115   111   8565 29.0246  0.8141 14.0721  8.0056  4.7712 0.12019  6.861 12.666 24.046 19.832  6.3567 19.8062 31.9644
 2002 049   116   112   8651 27.0532  0.9409 13.2119  7.3902  4.7748 0.08217  6.787 12.410 24.410 20.126  6.3594 19.7694 31.9843
 2002 050   117   113   8711 22.9472  1.0710 10.9201  5.6567  5.4568 0.06677  6.684 12.099 26.494 22.424  6.3642 19.7752 31.9487
 2002 051   118   114   8749 18.9577  1.1398  9.1038  4.3055  5.3139 0.04405  6.558 11.750 25.714 22.894  6.3673 19.7852 31.9192
 2002 052   119   115   8821 24.6562  1.0506 11.5950  6.1580  5.2347 0.05168  6.439 11.427 24.809 21.991  6.3683 19.7917 31.9066
 2002 053   120   116   8889 24.0513  0.9853 10.9330  5.9738  5.4602 0.07154  6.326 11.129 25.839 22.628  6.3732 19.7962 31.8710
 2002 054   121   117   8951 20.8521  0.9369  9.9152  5.6016  4.2577 0.04939  6.208 10.832 23.776 19.960  6.3729 19.7737 31.8955
 2002 055   122   118   9007 16.8886  0.6830  8.4226  5.1063  2.7561 0.07450  6.130 10.631 20.150 15.586  6.3826 19.6460 31.9626
 2002 056   123   119   9075 22.0341  0.8697 10.0055  6.0250  4.5961 0.05613  6.013 10.353 27.266 19.958  6.3827 19.6276 31.9802
 2002 057   124   120   9121 20.6504  0.9499  8.2582  4.8652  6.5920 0.07232  5.881 10.050 31.053 25.600  6.3938 19.6324 31.9060
 2002 058   125   121   9164 20.0362  1.0195  7.8788  4.6541  6.8350 0.04611  5.724  9.705 31.813 26.291  6.4029 19.6419 31.8402
 2002 059   126   122   9187 15.6651  1.1244  5.9574  3.1681  6.7756 0.01369  5.533  9.302 31.392 27.224  6.4086 19.6533 31.7930
 2002 060   127   123   9233 16.3899  0.8189  7.3585  4.3624  3.8115 0.04053  5.398  9.018 23.356 19.581  6.4081 19.6364 31.8130
 2002 061   128   124   9290 17.1795  0.2674  7.6470  2.9206  4.2878 0.20825  5.403  9.017 26.400 20.455  6.3477 19.7532 32.0739
 2002 062   129   125   9033 15.9607  1.0025  6.7457  2.8267  5.4607 0.00000  5.154  8.096 29.737 23.901  6.3065 19.8521 32.2325
 2002 063   130   126   8798 10.4423  0.8848  3.5816  1.7358  5.6221 0.00000  4.897  7.275 30.021 26.215  6.3089 19.8583 32.2111
 2002 064   131   127   8597  4.2851  0.6713  1.2195  0.3498  3.4295 0.00000  4.671  6.598 22.612 21.509  6.3086 19.8592 32.2122
 2002 065   132   128   8438  5.0490  0.5906  1.5549  0.4460  3.6899 0.00000  4.451  6.006 25.472 22.486  6.3083 19.8614 32.2114
 2002 066   133   129   8295  5.0640  0.5507  0.7958  0.2283  4.6277 0.00000  4.218  5.472 29.072 25.873  6.3088 19.8627 32.2072
 2002 067   134   130   8182  3.0769  0.4795  0.0000  0.0000  4.2828 0.00000  3.991  5.010 28.494 25.580  6.3088 19.8627 32.2072
 2002 068   135   131   8088  3.9296  0.4334  0.0000  0.0000  5.0945 0.00000  3.771  4.602 32.417 28.013  6.3088 19.8627 32.2072
 2002 069   136   132   8007  3.1536  0.3894  0.0000  0.0000  5.1324 0.00000  3.562  4.244 32.993 28.555  6.3088 19.8627 32.2072
 2002 070   137   133   7924  1.1458  0.3214  0.0000  0.0000  3.2401 0.00000  3.380  3.945 24.507 22.981  6.3088 19.8627 32.2072
 2002 071   138   134   7854  0.8821  0.2814  0.0000  0.0000  2.8222 0.00000  3.214  3.688 22.260 21.515  6.3088 19.8627 32.2072
 2002 072   139   135   7796  1.2778  0.2792  0.0000  0.0000  3.5120 0.00000  3.044  3.447 26.560 24.291  6.3088 19.8627 32.2072
 2002 073   140   136   7758  1.3403  0.2643  0.0000  0.0000  4.0538 0.00000  2.878  3.226 30.123 26.258  6.3088 19.8627 32.2072

*DSSAT Cropping System Model Ver. 4.6.1.000 -release      OCT 28, 2016; 12:06:18
                                                                                
*RUN   3        : UYSB                      CRGRO046 UYSB1014    1              
 MODEL          : CRGRO046 - Soybean                                            
 EXPERIMENT     : UYSB1014 SN late to create DSS                                
 DATA PATH      :                                                               
 TREATMENT  1   : UYSB                      CRGRO046                            
  
@YEAR DOY   DAS   DAP   TWAD    PHAD    CMAD    CGRD    GRAD    MRAD    CHAD   CL%D   CS%D   TGNN   TGAV    GN%D    GL%D    GC%D
 2002 302     4     0      0  0.0000  0.0000  0.0000  0.0000  0.0000 0.00000  0.000  0.000 17.235 14.876  0.0000  0.0000  0.0000
 2002 303     5     1      0  0.0000  0.0000  0.0000  0.0000  0.0000 0.00000  0.000  0.000 18.443 14.867  0.0000  0.0000  0.0000
 2002 304     6     2      0  0.0000  0.0000  0.0000  0.0000  0.0000 0.00000  0.000  0.000 21.502 17.569  0.0000  0.0000  0.0000
 2002 305     7     3      0  0.0000  0.0000  0.0000  0.0000  0.0000 0.00000  0.000  0.000 21.636 17.773  0.0000  0.0000  0.0000
 2002 306     8     4      0  0.0000  0.0000  0.0000  0.0000  0.0000 0.00000  0.000  0.000 23.827 20.179  0.0000  0.0000  0.0000
 2002 307     9     5      0  0.0000  0.0000  0.0000  0.0000  0.0000 0.00000  0.000  0.000 16.867 15.544  0.0000  0.0000  0.0000
 2002 308    10     6      0  0.0000  0.0000  0.0000  0.0000  0.0000 0.00000  0.000  0.000 15.211 13.243  0.0000  0.0000  0.0000
 2002 309    11     7      8  0.0000  0.0002  0.0002  0.0001  0.0000 0.00000  3.972  7.942 17.512 13.289  0.0000  0.0000  0.0000
 2002 310    12     8      8  0.1376  0.0003  0.0878  0.0305  0.0064 0.00000  3.942  7.882 19.788 15.243  0.0000  0.0000  0.0000
 2002 311    13     9     10  0.1937  0.0005  0.1236  0.0401  0.0120 0.00000  3.899  7.808 24.037 19.097  0.0000  0.0000  0.0000
 2002 312    14    10     11  0.2227  0.0007  0.1410  0.0452  0.0167 0.00000  3.851  7.729 26.285 21.452  0.0000  0.0000  0.0000
 2002 313    15    11     12  0.1145  0.0006  0.0725  0.0241  0.0085 0.00000  3.811  7.656 19.992 18.452  0.0000  0.0000  0.0000
 2002 314    16    12     12  0.1350  0.0004  0.0866  0.0300  0.0064 0.00000  3.793  7.623 16.726 14.256  0.0000  0.0000  0.0000
 2002 315    17    13     13  0.1130  0.0006  0.0717  0.0230  0.0085 0.00000  3.758  7.563 21.323 17.563  0.0000  0.0000  0.0000
 2002 316    18    14     15  0.3120  0.0007  0.2031  0.0614  0.0191 0.00000  3.730  7.556 24.944 18.677  0.0000  0.0000  0.0000
 2002 317    19    15     17  0.3386  0.0010  0.2165  0.0651  0.0267 0.00000  3.694  7.524 27.936 21.633  0.0000  0.0000  0.0000
 2002 318    20    16     19  0.3197  0.0013  0.2017  0.0608  0.0302 0.00000  3.648  7.468 28.227 23.678  0.0000  0.0000  0.0000
 2002 319    21    17     21  0.2823  0.0013  0.1804  0.0531  0.0252 0.00000  3.603  7.413 24.148 22.214  0.0000  0.0000  0.0000
 2002 320    22    18     23  0.4251  0.0016  0.2514  0.0959  0.0406 0.00000  3.611  7.342 28.677 24.235  0.0000  0.0000  0.0000
 2002 321    23    19     25  0.2751  0.0018  0.1616  0.0608  0.0308 0.00000  3.582  7.252 26.588 23.973  0.0000  0.0000  0.0000
 2002 322    24    20     28  0.6144  0.0019  0.3765  0.1332  0.0536 0.00000  3.579  7.258 27.300 23.932  0.0000  0.0000  0.0000
 2002 323    25    21     32  0.5712  0.0018  0.3793  0.1128  0.0447 0.00000  3.601  7.270 25.989 21.546  0.0000  0.0000  0.0000
 2002 324    26    22     34  0.3948  0.0021  0.2513  0.0817  0.0360 0.00000  3.610  7.218 23.629 21.623  0.0000  0.0000  0.0000
 2002 325    27    23     39  0.7729  0.0019  0.4658  0.1748  0.0490 0.00000  3.605  7.258 22.791 19.638  0.0000  0.0000  0.0000
 2002 326    28    24     45  0.9551  0.0019  0.6040  0.2072  0.0530 0.00000  3.615  7.318 22.804 18.110  0.0000  0.0000  0.0000
 2002 327    29    25     52  1.1540  0.0032  0.7133  0.2385  0.0969 0.00000  3.607  7.343 28.824 23.127  0.0000  0.0000  0.0000
 2002 328    30    26     57  1.0384  0.0044  0.6541  0.2022  0.1076 0.00000  3.621  7.307 28.058 25.585  0.0000  0.0000  0.0000
 2002 329    31    27     62  0.7497  0.0039  0.4810  0.1498  0.0681 0.00000  3.628  7.261 23.837 21.830  0.0000  0.0000  0.0000
 2002 330    32    28     71  1.5484  0.0047  0.9021  0.3360  0.1304 0.00000  3.605  7.279 26.967 23.455  0.0000  0.0000  0.0000
 2002 331    33    29     78  1.2609  0.0055  0.7598  0.2558  0.1227 0.00000  3.576  7.258 27.847 24.012  0.0000  0.0000  0.0000
 2002 332    34    30     83  0.8404  0.0036  0.5250  0.1786  0.0533 0.00000  3.565  7.247 18.431 16.925  0.0000  0.0000  0.0000
 2002 333    35    31     89  1.0541  0.0052  0.6507  0.2171  0.0854 0.00000  3.546  7.225 22.693 20.292  0.0000  0.0000  0.0000
 2002 334    36    32    103  2.2592  0.0071  1.4530  0.4379  0.1989 0.00000  3.576  7.258 27.443 24.110  0.0000  0.0000  0.0000
 2002 335    37    33    109  1.0986  0.0056  0.6911  0.2292  0.0805 0.00000  3.564  7.235 19.568 18.421  0.0000  0.0000  0.0000
 2002 336    38    34    127  2.8871  0.0064  1.7750  0.6035  0.1717 0.00000  3.554  7.311 22.793 19.316  0.0000  0.0000  0.0000
 2002 337    39    35    143  2.8546  0.0086  1.8296  0.5567  0.2034 0.00000  3.569  7.338 25.026 20.832  0.0000  0.0000  0.0000
 2002 338    40    36    151  1.6499  0.0089  1.1174  0.3293  0.1281 0.00000  3.592  7.286 20.570 19.423  0.0000  0.0000  0.0000
 2002 339    41    37    168  3.0325  0.0000  1.6263  0.4257  0.2794 0.44753  8.449 11.546 26.740 23.908  0.0000  0.0000  0.0000
 2002 340    42    38    180  2.3185  0.0210  1.4275  0.4768  0.2230 0.00000  7.932 11.074 24.996 22.845  0.0000  0.0000  0.0000
 2002 341    43    39    199  3.3610  0.0177  1.8674  0.7784  0.2321 0.00000  7.290 10.606 23.328 19.922  0.0000  0.0000  0.0000
 2002 342    44    40    223  4.4729  0.0148  2.2785  1.1191  0.2299 0.00000  6.702 10.195 21.115 17.136  0.0000  0.0000  0.0000
 2002 343    45    41    260  6.2368  0.0212  3.6658  1.3913  0.4015 0.00000  6.159  9.724 23.757 20.424  0.0000  0.0000  0.0000
 2002 344    46    42    285  4.3337  0.0223  2.5820  0.9751  0.2977 0.01169  5.891  9.525 21.992 19.555  0.0000  0.0000  0.0000
 2002 345    47    43    335  8.4639  0.0309  5.0303  1.8591  0.6680 0.05162  5.612  9.488 26.399 23.174  0.0000  0.0000  0.0000
 2002 346    48    44    388  8.8173  0.0322  5.2662  1.9520  0.6242 0.08198  5.461  9.622 24.613 21.424  0.0000  0.0000  0.0000
 2002 347    49    45    438  8.4328  0.0367  5.0372  1.8982  0.6080 0.10482  5.389  9.827 23.934 21.067  0.0000  0.0000  0.0000
 2002 348    50    46    499 10.5600  0.0505  6.0859  2.3812  0.9400 0.16362  5.363 10.151 27.728 24.037  0.0000  0.0000  0.0000
 2002 349    51    47    565 11.5678  0.0611  6.5702  2.6227  1.0968 0.21838  5.384 10.549 28.295 24.784  0.0000  0.0000  0.0000
 2002 350    52    48    654 15.2980  0.0680  8.9172  3.4394  1.2797 0.35217  5.511 11.160 26.756 23.674  0.0000  0.0000  0.0000
 2002 351    53    49    749 15.9190  0.0732  9.4812  3.5260  1.1858 0.42927  5.674 11.781 25.150 21.782  0.0000  0.0000  0.0000
 2002 352    54    50    863 19.0144  0.0826 11.2036  4.2262  1.3363 0.56751  5.854 12.459 25.998 20.875  0.0000  0.0000  0.0000
 2002 353    55    51    902  7.8437  0.0830  3.9177  2.0009  0.6281 0.21704  5.843 12.584 20.469 18.498  0.0000  0.0000  0.0000
 2002 354    56    52   1006 18.2503  0.1039 10.2880  4.1213  1.3057 0.62746  6.016 13.171 23.830 20.677  0.0000  0.0000  0.0000
 2002 355    57    53   1136 22.5682  0.1210 12.5644  5.0065  1.6002 0.83672  6.226 13.847 25.359 20.665  0.0000  0.0000  0.0000
 2002 356    58    54   1187 11.5464  0.1753  6.5870  2.2477  1.3831 0.49017  6.346 14.096 27.531 23.840  0.0000  0.0000  0.0000
 2002 357    59    55   1236  9.2958  0.0895  4.6703  2.2885  0.5730 0.36449  6.379 14.290 17.409 15.009  0.0000  0.0000  0.0000
 2002 358    60    56   1349 19.7754  0.1240 10.7881  4.4505  1.1745 0.89244  6.546 14.854 21.657 17.501  0.0000  0.0000  0.0000
 2002 359    61    57   1500 26.8700  0.1722 14.5617  5.9150  1.8654 1.27909  6.788 15.561 25.205 19.830  0.0000  0.0000  0.0000
 2002 360    62    58   1658 28.1855  0.2447 16.0430  5.8618  2.5428 1.50492  7.075 16.257 28.171 22.975  0.0000  0.0000  0.0000
 2002 361    63    59   1824 29.2577  0.3141 16.3084  5.8107  3.3573 1.59223  7.289 16.835 31.817 25.941  0.0000  0.0000  0.0000
 2002 362    64    60   1885 14.0753  0.3595  5.8384  3.5885  1.9815 0.55532  7.218 16.794 26.428 24.349  0.0000  0.0000  0.0000
 2002 363    65    61   1942 14.4411  0.3787  6.5013  3.4199  2.1207 0.63543  7.236 16.834 27.574 24.815  0.0000  0.0000  0.0000
 2002 364    66    62   2051 21.3198  0.3645 12.1087  4.0868  2.4032 1.33231  7.469 17.281 26.933 23.529  0.0000  0.0000  0.0000
 2002 365    67    63   2142 17.1182  0.3478  9.5874  3.4104  1.8597 0.99846  7.575 17.529 23.833 21.503  0.0000  0.0000  0.0000
 2003 001    68    64   2292 25.4433  0.0555 14.6365  4.2950  2.5089 1.80396  7.929 18.377 25.072 22.312  0.0000  0.0000  0.0000
 2003 002    69    65   2471 28.9102  0.0000 14.4159  4.1944  2.6927 4.89314  9.074 21.441 24.951 21.868  0.0000  0.0000  0.0000
 2003 003    70    66   2561 16.8419  0.5073  9.8917  3.1259  2.0232 0.97297  9.117 21.467 24.083 21.359  0.0000  0.0000  0.0000
 2003 004    71    67   2775 34.0289  0.0000 14.3613  4.0908  3.7127 8.62027 11.003 26.411 28.100 24.085  0.0000  0.0000  0.0000
 2003 005    72    68   2980 33.2528  0.0000 14.0279  4.1005  3.8156 8.09728 12.579 30.363 29.302 23.961  0.0000  0.0000  0.0000
 2003 006    73    69   3189 34.5965  0.0000 17.3668  5.2986  3.3810 5.14064 13.329 32.062 25.764 21.928  0.0000  0.0000  0.0000
 2003 007    74    70   3397 35.1363  0.0000 18.0649  5.5863  3.7010 4.31809 13.830 33.102 27.684 22.307  0.0000  0.0000  0.0000
 2003 008    75    71   3604 34.7878  0.0000 16.1188  4.9955  3.9524 6.22532 14.699 35.076 28.474 22.810  0.0000  0.0000  0.0000
 2003 009    76    72   3778 32.3542  0.0000 16.8684  5.2413  4.4629 2.48622 14.915 35.350 28.626 24.969  0.0000  0.0000  0.0000
 2003 010    77    73   3856 19.9539  1.4812 10.7663  3.9457  3.5064 0.53253 14.781 34.907 26.855 24.346  0.0000  0.0000  0.0000
 2003 011    78    74   4018 31.3683  1.0349 17.1469  5.4876  4.2404 1.97466 14.772 34.714 28.324 23.880  0.0000  0.0000  0.0000
 2003 012    79    75   4207 35.9459  1.0554 19.7936  6.2968  4.3965 2.61855 14.800 34.584 28.032 23.086  0.0000  0.0000  0.0000
 2003 013    80    76   4398 35.8095  1.3978 20.5143  6.6915  4.0366 2.52223 14.752 34.300 27.304 21.497  6.2042 20.1503 32.5732
 2003 014    81    77   4570 35.8429  1.6482 19.9147  6.7336  4.8695 2.27113 14.681 33.976 29.163 23.787  6.3079 20.3978 31.6779
 2003 015    82    78   4713 34.1390  1.8419 17.6371  6.7342  5.3466 1.88535 14.575 33.604 29.931 25.272  6.4147 20.4604 30.9480
 2003 016    83    79   4842 34.4468  1.9730 17.3060  7.0389  5.7335 1.56329 14.465 33.212 30.219 26.062  6.4830 20.4801 30.5012
 2003 017    84    80   4961 34.1523  2.0387 16.6980  7.0310  6.1724 1.50112 14.354 32.822 31.815 26.870  6.5402 20.4882 30.1357
 2003 018    85    81   5070 34.7475  1.8158 18.4309  7.4576  4.5350 1.27076 14.267 32.490 26.250 22.451  6.4317 20.4521 30.8500
 2003 019    86    82   5170 32.9275  1.8714 16.4187  7.4227  5.0081 0.82653 14.152 32.106 29.569 23.478  6.3909 20.4693 31.0874
 2003 020    87    83   5259 29.0425  2.0121 15.1804  6.7356  4.7270 0.00000 13.977 31.586 26.687 23.785  6.3774 20.4796 31.1619
 2003 021    88    84   5363 34.2470  1.9849 16.9253  7.7437  5.1985 0.49791 13.834 31.136 28.279 23.800  6.3705 20.4851 31.1992
 2003 022    89    85   5414 24.3332  2.1266 12.7010  5.5103  5.0963 0.00000 13.644 30.577 29.051 25.289  6.3974 20.4886 31.0277
 2003 023    90    86   5523 33.4687  1.8747 17.1528  8.1797  4.5450 0.00000 13.484 30.082 25.355 22.131  6.3609 20.4527 31.2915
 2003 024    91    87   5638 34.0563  1.6662 17.3402  8.3107  3.9886 0.43894 13.377 29.713 25.627 19.752  6.3282 20.2568 31.6918
 2003 025    92    88   5731 32.3849  1.9652 16.3514  7.8289  5.0397 0.00000 13.204 29.186 27.852 23.088  6.3220 20.2953 31.6922
 2003 026    93    89   5822 33.6786  1.9089 16.8513  8.2635  5.0120 0.00000 13.037 28.670 27.983 22.538  6.3112 20.3133 31.7416
 2003 027    94    90   5900 32.0965  1.8700 16.1747  7.9239  4.8457 0.00000 12.873 28.160 27.938 22.136  6.2990 20.3154 31.8157
 2003 028    95    91   5995 33.1826  1.9664 16.3253  8.1379  5.6030 0.00000 12.696 27.614 29.560 23.830  6.3074 20.3433 31.7356
 2003 029    96    92   6045 32.4553  2.0569 15.8376  7.8503  6.0986 0.00000 12.506 27.034 30.077 25.171  6.3305 20.3651 31.5696
 2003 030    97    93   6126 33.6805  2.0934 15.8950  8.0567  7.2112 0.00347 12.306 26.430 32.949 27.220  6.3732 20.3829 31.2847
 2003 031    98    94   6188 32.2572  2.0882 15.0546  7.5091  7.6211 0.05647 12.098 25.823 33.943 28.214  6.4174 20.3969 30.9944
 2003 032    99    95   6225 26.9929  2.0717 13.0227  6.6117  6.3640 0.00000 11.898 25.206 30.544 26.606  6.4408 20.4101 30.8349
 2003 033   100    96   6279 30.8153  2.0012 14.2333  7.4066  7.3816 0.03325 11.699 24.599 33.602 27.803  6.4709 20.4203 30.6367
 2003 034   101    97   6285 18.5939  1.8421  9.4115  4.4123  5.5743 0.03359 11.533 24.046 30.379 26.048  6.4935 20.3995 30.5161
 2003 035   102    98   6262 17.4623  1.8129  9.2270  4.0152  5.2088 0.02228 11.369 23.483 29.245 25.344  6.5015 20.3915 30.4740
 2003 036   103    99   6262 14.3521  1.6790  8.4265  3.1039  3.9222 0.00000 11.214 22.936 24.113 22.396  6.4814 20.3906 30.6009
 2003 037   104   100   6317 27.5944  1.6580 13.2522  6.8150  6.4541 0.04594 11.072 22.405 31.134 26.483  6.5077 20.3731 30.4540
 2003 038   105   101   6350 19.3737  1.6548 10.2411  4.4353  4.9520 0.01982 10.916 21.846 26.892 24.388  6.5052 20.3713 30.4712
 2003 039   106   102   6385 23.3222  1.5966 11.5747  5.9011  5.6909 0.03643 10.764 21.300 28.701 25.481  6.5145 20.3620 30.4227
 2003 040   107   103   6424 21.4459  1.4942 10.4355  5.2399  5.7416 0.06057 10.625 20.789 28.827 25.930  6.5311 20.3407 30.3397
 2003 041   108   104   6468 20.1135  1.4504  9.9094  4.7616  5.3356 0.05220 10.480 20.274 27.938 25.077  6.5392 20.3255 30.3047
 2003 042   109   105   6486 14.5369  1.4510  7.7662  3.1271  4.3839 0.01836 10.310 19.725 25.611 23.430  6.5332 20.3250 30.3427
 2003 043   110   106   6558 25.0717  1.3317 11.9168  6.2028  5.3983 0.05559 10.161 19.230 27.201 24.270  6.5355 20.3128 30.3405
 2003 044   111   107   6630 24.7058  1.2230 11.6030  6.2490  5.1864 0.06749 10.023 18.775 27.487 23.555  6.5362 20.2970 30.3516
 2003 045   112   108   6699 24.0667  1.2443 11.2252  6.4110  5.2465 0.05208  9.863 18.290 28.331 23.793  6.5356 20.2885 30.3640
 2003 046   113   109   6755 21.3210  1.2434  9.7770  5.4992  5.3598 0.04638  9.689 17.790 29.744 24.528  6.5383 20.2814 30.3544
 2003 047   114   110   6810 17.0086  1.0331  8.8153  4.8875  2.8539 0.02867  9.535 17.360 20.941 17.905  6.5309 20.1817 30.5004
 2003 048   115   111   6884 22.2261  0.9164 10.5986  6.3290  3.6058 0.07542  9.414 17.003 25.007 19.257  6.5272 20.1051 30.6000
 2003 049   116   112   6952 21.4867  1.0279 10.0305  5.9956  4.0941 0.05266  9.251 16.573 27.035 20.893  6.5213 20.0811 30.6611
 2003 050   117   113   6968  9.6464  1.0115  5.3771  2.6946  2.2230 0.00358  9.063 16.111 19.488 16.596  6.5173 20.0079 30.7587
 2003 051   118   114   7017 14.8947  0.9061  7.5878  4.4199  2.4357 0.03035  8.899 15.707 20.213 16.680  6.5156 19.9049 30.8725
 2003 052   119   115   7068 15.3257  0.8183  7.5664  4.4494  2.5108 0.04935  8.753 15.350 22.174 16.429  6.5173 19.7948 30.9722
 2003 053   120   116   7084 10.4581  0.9327  5.2403  2.8095  2.5737 0.02679  8.565 14.917 21.269 18.130  6.5152 19.7561 31.0239
 2003 054   121   117   7052  6.2119  0.9708  3.3617  1.4080  2.2969 0.00496  8.353 14.443 19.850 17.853  6.5124 19.7326 31.0650
 2003 055   122   118   7078 13.0945  0.9935  5.7448  3.1530  3.8487 0.03599  8.138 13.971 25.621 22.625  6.5120 19.7368 31.0630
 2003 056   123   119   7124 16.2618  1.0617  7.3751  3.0083  4.2356 0.00000  7.884 13.431 28.431 22.905  6.4517 19.8674 31.3092
 2003 057   124   120   6961 14.3354  1.0797  5.8646  2.2789  5.1847 0.00000  7.518 12.360 31.406 26.310  6.4080 19.9753 31.4745
 2003 058   125   121   6820 10.9700  0.9326  4.0852  1.6385  5.0878 0.00000  7.156 11.400 31.998 27.366  6.3787 20.0504 31.5825
 2003 059   126   122   6690  5.2869  0.7623  1.9227  0.6390  3.4305 0.00000  6.825 10.574 26.249 23.827  6.3786 20.0533 31.5806
 2003 060   127   123   6582  3.9146  0.6412  1.2800  0.3672  2.9508 0.00000  6.513  9.855 24.271 22.597  6.3781 20.0548 31.5822
 2003 061   128   124   6482  2.3720  0.5591  0.1761  0.0505  2.7103 0.00000  6.200  9.219 23.662 22.202  6.3780 20.0550 31.5826
 2003 062   129   125   6411  3.6923  0.5146  0.9548  0.2739  3.0110 0.00000  5.904  8.637 26.425 23.293  6.3778 20.0564 31.5826
 2003 063   130   126   6353  3.3830  0.4471  0.8387  0.2406  2.7785 0.00000  5.631  8.127 27.204 22.223  6.3774 20.0572 31.5842
 2003 064   131   127   6301  2.1025  0.4360  0.0000  0.0000  3.2623 0.00000  5.336  7.641 28.794 25.166  6.3774 20.0572 31.5842
 2003 065   132   128   6246  0.8978  0.3781  0.0000  0.0000  2.5643 0.00000  5.071  7.217 23.452 22.670  6.3774 20.0572 31.5842
 2003 066   133   129   6200  1.0848  0.3702  0.0000  0.0000  3.0477 0.00000  4.803  6.810 27.405 24.953  6.3774 20.0572 31.5842
 2003 067   134   130   6165  0.7569  0.3416  0.0000  0.0000  2.9636 0.00000  4.549  6.438 27.217 24.801  6.3774 20.0572 31.5842
 2003 068   135   131   6131  0.6369  0.3236  0.0000  0.0000  3.1279 0.00000  4.303  6.089 28.113 25.697  6.3774 20.0572 31.5842

*DSSAT Cropping System Model Ver. 4.6.1.000 -release      OCT 28, 2016; 12:06:18
                                                                                
*RUN   4        : UYSB                      CRGRO046 UYSB1014    1              
 MODEL          : CRGRO046 - Soybean                                            
 EXPERIMENT     : UYSB1014 SN late to create DSS                                
 DATA PATH      :                                                               
 TREATMENT  1   : UYSB                      CRGRO046                            
  
@YEAR DOY   DAS   DAP   TWAD    PHAD    CMAD    CGRD    GRAD    MRAD    CHAD   CL%D   CS%D   TGNN   TGAV    GN%D    GL%D    GC%D
 2003 302     4     0      0  0.0000  0.0000  0.0000  0.0000  0.0000 0.00000  0.000  0.000 24.119 18.543  0.0000  0.0000  0.0000
 2003 303     5     1      0  0.0000  0.0000  0.0000  0.0000  0.0000 0.00000  0.000  0.000 29.056 23.550  0.0000  0.0000  0.0000
 2003 304     6     2      0  0.0000  0.0000  0.0000  0.0000  0.0000 0.00000  0.000  0.000 18.680 15.676  0.0000  0.0000  0.0000
 2003 305     7     3      0  0.0000  0.0000  0.0000  0.0000  0.0000 0.00000  0.000  0.000 17.079 13.324  0.0000  0.0000  0.0000
 2003 306     8     4      0  0.0000  0.0000  0.0000  0.0000  0.0000 0.00000  0.000  0.000 17.762 12.218  0.0000  0.0000  0.0000
 2003 307     9     5      0  0.0000  0.0000  0.0000  0.0000  0.0000 0.00000  0.000  0.000 18.868 13.073  0.0000  0.0000  0.0000
 2003 308    10     6      8  0.0000  0.0003  0.0002  0.0001  0.0000 0.00000  3.961  7.918 20.549 15.933  0.0000  0.0000  0.0000
 2003 309    11     7      9  0.1706  0.0004  0.1087  0.0370  0.0095 0.00000  3.922  7.846 22.668 17.837  0.0000  0.0000  0.0000
 2003 310    12     8     10  0.2015  0.0006  0.1284  0.0422  0.0134 0.00000  3.877  7.771 24.731 20.043  0.0000  0.0000  0.0000
 2003 311    13     9     11  0.2257  0.0007  0.1433  0.0466  0.0167 0.00000  3.831  7.699 25.951 21.298  0.0000  0.0000  0.0000
 2003 312    14    10     13  0.2275  0.0008  0.1434  0.0462  0.0191 0.00000  3.784  7.627 27.600 22.303  0.0000  0.0000  0.0000
 2003 313    15    11     14  0.2190  0.0010  0.1367  0.0440  0.0213 0.00000  3.731  7.547 27.959 23.806  0.0000  0.0000  0.0000
 2003 314    16    12     16  0.3185  0.0010  0.2024  0.0639  0.0266 0.00000  3.692  7.510 28.213 22.664  0.0000  0.0000  0.0000
 2003 315    17    13     18  0.3273  0.0012  0.2037  0.0640  0.0341 0.00000  3.648  7.460 31.366 25.171  0.0000  0.0000  0.0000
 2003 316    18    14     19  0.1739  0.0008  0.1125  0.0352  0.0118 0.00000  3.622  7.421 19.316 17.060  0.0000  0.0000  0.0000
 2003 317    19    15     21  0.2551  0.0007  0.1675  0.0519  0.0129 0.00000  3.610  7.416 18.352 15.415  0.0000  0.0000  0.0000
 2003 318    20    16     22  0.3180  0.0008  0.1984  0.0735  0.0162 0.00000  3.629  7.397 20.675 15.482  0.0000  0.0000  0.0000
 2003 319    21    17     25  0.4582  0.0014  0.2993  0.0962  0.0341 0.00000  3.670  7.361 26.849 20.545  0.0000  0.0000  0.0000
 2003 320    22    18     26  0.2318  0.0015  0.1366  0.0525  0.0207 0.00000  3.639  7.294 21.316 19.812  0.0000  0.0000  0.0000
 2003 321    23    19     29  0.4338  0.0017  0.2880  0.0832  0.0357 0.00000  3.652  7.270 25.172 21.482  0.0000  0.0000  0.0000
 2003 322    24    20     31  0.2693  0.0011  0.1698  0.0596  0.0162 0.00000  3.645  7.246 17.422 15.667  0.0000  0.0000  0.0000
 2003 323    25    21     35  0.7245  0.0017  0.4525  0.1508  0.0463 0.00000  3.633  7.295 23.886 19.694  0.0000  0.0000  0.0000
 2003 324    26    22     39  0.6152  0.0014  0.3814  0.1409  0.0293 0.00000  3.651  7.304 18.961 15.736  0.0000  0.0000  0.0000
 2003 325    27    23     44  0.8921  0.0019  0.5626  0.1893  0.0504 0.00000  3.656  7.344 23.516 17.818  0.0000  0.0000  0.0000
 2003 326    28    24     51  1.0712  0.0033  0.6510  0.2165  0.1015 0.00000  3.639  7.345 30.701 24.430  0.0000  0.0000  0.0000
 2003 327    29    25     57  1.1839  0.0042  0.7340  0.2312  0.1305 0.00000  3.639  7.335 32.061 26.722  0.0000  0.0000  0.0000
 2003 328    30    26     60  0.4886  0.0028  0.2921  0.1079  0.0364 0.00000  3.612  7.297 18.854 17.420  0.0000  0.0000  0.0000
 2003 329    31    27     69  1.4519  0.0038  0.8977  0.3128  0.1009 0.00000  3.616  7.323 25.665 20.576  0.0000  0.0000  0.0000
 2003 330    32    28     76  1.2673  0.0053  0.7999  0.2514  0.1208 0.00000  3.628  7.296 27.935 23.814  0.0000  0.0000  0.0000
 2003 331    33    29     88  1.9602  0.0058  1.1744  0.4106  0.1644 0.00000  3.606  7.322 27.597 23.368  0.0000  0.0000  0.0000
 2003 332    34    30     97  1.5484  0.0059  0.9629  0.3104  0.1229 0.00000  3.582  7.319 25.765 21.177  0.0000  0.0000  0.0000
 2003 333    35    31    112  2.4600  0.0067  1.5318  0.5001  0.1847 0.00000  3.580  7.348 27.056 21.644  0.0000  0.0000  0.0000
 2003 334    36    32    120  1.3778  0.0067  0.8597  0.2828  0.1043 0.00000  3.560  7.319 21.430 19.387  0.0000  0.0000  0.0000
 2003 335    37    33    138  2.8933  0.0082  1.8226  0.5826  0.2067 0.00000  3.553  7.349 24.764 21.216  0.0000  0.0000  0.0000
 2003 336    38    34    155  2.8034  0.0085  1.7809  0.5616  0.1854 0.00000  3.544  7.366 24.016 19.535  0.0000  0.0000  0.0000
 2003 337    39    35    174  3.1995  0.0114  2.0015  0.6380  0.2574 0.00000  3.529  7.362 27.049 21.851  0.0000  0.0000  0.0000
 2003 338    40    36    188  2.5801  0.0136  1.5352  0.5858  0.2381 0.00000  3.531  7.296 26.335 22.428  0.0000  0.0000  0.0000
 2003 339    41    37    214  4.3052  0.0114  2.6421  0.9861  0.2642 0.00000  3.569  7.299 23.256 19.134  0.0000  0.0000  0.0000
 2003 340    42    38    242  4.6968  0.0112  2.9008  1.0706  0.2602 0.00000  3.600  7.311 23.228 17.421  0.0000  0.0000  0.0000
 2003 341    43    39    270  4.6570  0.0164  2.8293  1.0388  0.3371 0.00000  3.606  7.288 25.252 20.305  0.0000  0.0000  0.0000
 2003 342    44    40    291  3.7242  0.0158  2.2747  0.8594  0.2548 0.00000  3.601  7.260 22.502 18.487  0.0000  0.0000  0.0000
 2003 343    45    41    326  5.7612  0.0144  3.5779  1.3386  0.2954 0.00000  3.618  7.275 20.643 16.736  0.0000  0.0000  0.0000
 2003 344    46    42    373  7.8615  0.0199  4.8267  1.8209  0.4913 0.00000  3.633  7.290 25.323 18.944  0.0000  0.0000  0.0000
 2003 345    47    43    416  7.1242  0.0239  4.3539  1.6216  0.4844 0.00000  3.631  7.278 24.798 19.423  0.0000  0.0000  0.0000
 2003 346    48    44    465  8.1228  0.0213  5.0373  1.8566  0.4369 0.00000  3.639  7.289 22.007 16.918  0.0000  0.0000  0.0000
 2003 347    49    45    518  8.7270  0.0299  5.3204  1.9669  0.5759 0.02669  3.673  7.399 23.174 19.340  0.0000  0.0000  0.0000
 2003 348    50    46    588 11.8784  0.0402  7.1245  2.7067  0.9027 0.07300  3.755  7.659 25.928 21.700  0.0000  0.0000  0.0000
 2003 349    51    47    623  6.7034  0.0399  4.1513  1.4541  0.5355 0.06161  3.820  7.806 22.775 19.479  0.0000  0.0000  0.0000
 2003 350    52    48    689 11.1025  0.0312  6.5412  2.6446  0.5509 0.11994  3.926  8.147 19.816 16.090  0.0000  0.0000  0.0000
 2003 351    53    49    772 13.7412  0.0402  8.2383  3.1487  0.7539 0.18321  4.063  8.574 22.238 17.222  0.0000  0.0000  0.0000
 2003 352    54    50    876 17.2527  0.0557 10.2801  3.9348  1.0941 0.27559  4.229  9.087 24.712 19.087  0.0000  0.0000  0.0000
 2003 353    55    51    966 15.7366  0.0862  8.9542  3.5987  1.4165 0.29142  4.351  9.483 27.485 22.863  0.0000  0.0000  0.0000
 2003 354    56    52   1031 11.4272  0.0909  6.4129  2.6396  1.0549 0.24447  4.425  9.745 24.190 21.467  0.0000  0.0000  0.0000
 2003 355    57    53   1164 21.4389  0.1142 13.9401  4.0498  1.9984 0.61363  4.719 10.472 28.305 24.005  0.0000  0.0000  0.0000
 2003 356    58    54   1237 14.7487  0.0929  6.3634  4.0677  1.0214 0.31100  4.743 10.720 22.224 18.247  0.0000  0.0000  0.0000
 2003 357    59    55   1352 21.0651  0.0935 11.5158  4.9571  1.2363 0.61230  4.962 11.290 22.232 17.466  0.0000  0.0000  0.0000
 2003 358    60    56   1475 22.0117  0.1278 12.4014  5.0779  1.5596 0.72274  5.178 11.848 24.085 19.463  0.0000  0.0000  0.0000
 2003 359    61    57   1630 27.9443  0.1895 15.3380  6.3273  2.5693 0.99163  5.411 12.485 27.851 23.408  0.0000  0.0000  0.0000
 2003 360    62    58   1781 27.4988  0.2133 14.9642  6.2239  2.5471 1.06157  5.624 13.060 27.790 22.917  0.0000  0.0000  0.0000
 2003 361    63    59   1847 14.2688  0.2405  7.7788  3.0486  1.7218 0.61159  5.711 13.271 25.555 22.474  0.0000  0.0000  0.0000
 2003 362    64    60   1966 21.4199  0.1996 11.7830  4.7391  1.6377 0.99007  5.877 13.731 21.741 19.161  0.0000  0.0000  0.0000
 2003 363    65    61   2118 26.3323  0.1813 14.8370  5.7099  1.6327 1.29754  6.100 14.326 22.108 17.019  0.0000  0.0000  0.0000
 2003 364    66    62   2300 32.1730  0.2642 18.4331  6.6908  2.5187 1.69738  6.390 15.005 26.120 19.992  0.0000  0.0000  0.0000
 2003 365    67    63   2479 28.8955  0.2655 17.6357  5.7065  2.0171 1.66482  6.621 15.577 21.686 18.425  0.0000  0.0000  0.0000
 2004 001    68    64   2688 32.7494  0.0000 19.4514  5.4693  2.3656 2.66215  7.107 16.845 24.903 18.201  0.0000  0.0000  0.0000
 2004 002    69    65   2919 35.5564  0.0000 19.9468  5.3848  2.7102 4.44456  7.928 19.051 25.128 19.035  0.0000  0.0000  0.0000
 2004 003    70    66   3154 37.3932  0.0000 20.6925  5.5087  3.5997 4.46191  8.648 20.913 27.646 21.875  0.0000  0.0000  0.0000
 2004 004    71    67   3350 32.8888  0.7154 20.0715  5.5651  4.0061 2.23345  8.727 21.017 29.025 24.007  0.0000  0.0000  0.0000
 2004 005    72    68   3550 35.0428  0.8494 20.6872  5.8218  5.0162 2.39640  8.804 21.123 30.851 26.442  0.0000  0.0000  0.0000
 2004 006    73    69   3754 37.7094  0.8751 20.9626  6.7894  5.3265 2.45936  8.884 21.250 31.646 26.162  0.0000  0.0000  0.0000
 2004 007    74    70   3915 32.0427  0.9333 17.1301  5.7728  4.9091 2.09882  8.936 21.310 30.919 25.900  0.0000  0.0000  0.0000
 2004 008    75    71   4131 39.6664  0.9876 22.2446  6.8994  5.3670 2.74087  9.039 21.490 29.420 25.477  0.0000  0.0000  0.0000
 2004 009    76    72   4327 38.5122  1.0655 20.5058  6.8750  5.5465 2.64781  9.128 21.640 29.658 25.823  0.0000  0.0000  0.0000
 2004 010    77    73   4510 36.4941  1.1199 19.6507  6.5500  5.4638 2.44868  9.203 21.752 29.470 25.670  0.0000  0.0000  0.0000
 2004 011    78    74   4726 40.5125  1.0793 22.4887  7.4168  4.9805 2.79343  9.311 21.950 25.981 23.544  0.0000  0.0000  0.0000
 2004 012    79    75   4893 33.4678  1.0882 18.2624  6.2417  4.4361 2.01677  9.366 22.016 26.068 22.807  0.0000  0.0000  0.0000
 2004 013    80    76   5083 37.6239  1.0986 20.3509  7.1622  4.6559 2.32345  9.444 22.143 26.249 22.414  0.0000  0.0000  0.0000
 2004 014    81    77   5302 41.7715  1.1984 23.3315  7.6544  5.3765 2.56826  9.532 22.295 27.584 23.319  0.0000  0.0000  0.0000
 2004 015    82    78   5487 36.7911  1.1128 20.0920  7.1668  4.4327 1.97640  9.589 22.372 25.231 21.360  0.0000  0.0000  0.0000
 2004 016    83    79   5707 41.4671  1.1102 23.5427  7.8498  4.4326 2.36709  9.684 22.530 25.146 20.272  0.0000  0.0000  0.0000
 2004 017    84    80   5794 26.7422  1.3497 14.7172  5.2633  4.4265 0.47491  9.629 22.301 26.779 22.264  0.0000  0.0000  0.0000
 2004 018    85    81   5879 25.6741  1.4441 13.8403  5.2443  4.5863 0.00000  9.531 21.962 26.110 22.992  6.2857 20.4673 31.7472
 2004 019    86    82   5978 27.5825  1.3015 14.9539  5.9589  4.0150 0.02177  9.448 21.662 22.887 21.024  6.2298 20.1833 32.3806
 2004 020    87    83   6080 31.1729  1.5053 16.2392  6.4481  5.1466 0.38552  9.373 21.388 27.044 23.246  6.2623 20.3151 32.0457
 2004 021    88    84   6227 39.5175  1.5801 19.6819  8.2874  6.0155 1.26265  9.361 21.285 27.668 23.942  6.3043 20.3912 31.7068
 2004 022    89    85   6367 38.9718  1.6754 19.5778  8.0217  6.4098 1.07200  9.328 21.128 28.524 24.690  6.3485 20.4293 31.3924
 2004 023    90    86   6485 37.3913  1.6938 19.1896  7.8988  6.1177 0.65142  9.260 20.881 27.717 24.134  6.3590 20.4517 31.3046
 2004 024    91    87   6614 39.0861  1.7238 19.5373  8.3369  6.5133 0.58571  9.185 20.617 28.823 24.488  6.3758 20.4668 31.1846
 2004 025    92    88   6752 39.9715  1.6316 20.1611  8.8462  5.9253 0.69919  9.129 20.405 27.841 22.790  6.3469 20.4606 31.3710
 2004 026    93    89   6878 40.4131  1.6366 20.0933  8.8810  6.2679 0.75566  9.078 20.209 29.479 22.996  6.3323 20.4623 31.4606
 2004 027    94    90   7001 40.5260  1.6683 20.5685  9.1206  6.0951 0.42125  8.996 19.929 28.366 22.635  6.3155 20.4528 31.5754
 2004 028    95    91   7064 28.7759  1.7881 14.7328  6.3560  5.7663 0.00000  8.867 19.520 28.006 23.673  6.3214 20.4639 31.5274
 2004 029    96    92   7127 40.0069  1.8948 19.0593  9.1361  7.8702 0.00000  8.728 19.082 31.235 26.222  6.3714 20.4713 31.2075
 2004 030    97    93   7214 39.4346  1.8640 18.2814  8.8343  8.5905 0.04925  8.589 18.654 33.552 27.321  6.4296 20.4770 30.8380
 2004 031    98    94   7242 29.2150  1.9238 13.8213  6.3663  7.8461 0.00000  8.445 18.199 32.639 27.662  6.4797 20.4814 30.5205
 2004 032    99    95   7317 36.4006  1.8505 17.3366  8.6956  7.2414 0.00000  8.309 17.754 28.884 25.555  6.4849 20.4849 30.4842
 2004 033   100    96   7380 34.8279  1.7125 17.1371  8.2895  6.2631 0.00000  8.187 17.340 27.468 23.602  6.4584 20.4876 30.6475
 2004 034   101    97   7381 17.1426  1.5016  9.7411  3.9117  4.2652 0.01381  8.088 16.978 22.473 21.399  6.4290 20.4186 30.9005
 2004 035   102    98   7451 32.9113  1.7142 15.9647  7.8611  6.7651 0.00000  7.969 16.549 28.745 24.844  6.4302 20.4335 30.8780
 2004 036   103    99   7546 37.0379  1.6088 18.2568  9.1551  6.2194 0.00000  7.859 16.140 26.055 23.193  6.4001 20.4642 31.0351
 2004 037   104   100   7644 36.8941  1.4679 18.4874  9.6748  5.4712 0.00000  7.759 15.761 25.435 21.285  6.3638 20.4339 31.2920
 2004 038   105   101   7732 34.3771  1.4468 17.2082  9.0967  5.4145 0.00000  7.657 15.381 25.857 21.278  6.3435 20.3902 31.4632
 2004 039   106   102   7824 35.8889  1.4706 17.7295  9.5726  5.9222 0.00000  7.549 14.986 26.539 22.175  6.3307 20.3838 31.5493
 2004 040   107   103   7912 33.6089  1.0476 16.3462  8.9392  6.0138 0.12405  7.515 14.758 27.330 22.466  6.3522 20.3232 31.4754
 2004 041   108   104   8000 33.9704  1.1048 16.2815  8.9209  6.6029 0.11649  7.470 14.503 28.226 23.613  6.3761 20.2875 31.3620
 2004 042   109   105   8070 33.4361  1.0640 15.9142  8.7424  6.5972 0.11928  7.427 14.255 28.474 23.505  6.3957 20.2562 31.2709
 2004 043   110   106   8149 31.0919  1.2177 14.3687  7.6985  7.7511 0.08778  7.351 13.938 31.109 25.997  6.4227 20.2400 31.1183
 2004 044   111   107   8156 14.2651  1.3353  8.2388  2.7324  4.5928 0.00000  7.230 13.538 22.916 21.737  6.4145 20.2393 31.1702
 2004 045   112   108   8227 23.6961  0.9981 12.1145  5.9987  4.5209 0.07037  7.162 13.266 23.755 20.003  6.4134 20.1743 31.2421
 2004 046   113   109   8329 30.4249  0.8419 14.8932  8.4494  4.7056 0.10403  7.118 13.054 25.023 19.271  6.4153 20.0699 31.3342
 2004 047   114   110   8411 27.3302  0.9895 13.1284  7.1618  5.3646 0.08257  7.042 12.780 26.848 21.419  6.4165 20.0473 31.3498
 2004 048   115   111   8481 23.8209  0.9600 11.5835  6.1608  4.8615 0.08302  6.965 12.511 24.824 21.039  6.4183 20.0201 31.3654
 2004 049   116   112   8551 22.2960  0.9195 11.1696  6.1305  4.0039 0.06282  6.879 12.240 23.336 18.872  6.4177 19.9514 31.4381
 2004 050   117   113   8632 25.5661  0.7840 12.1043  7.0584  4.4549 0.11120  6.820 12.033 24.229 19.767  6.4221 19.8962 31.4658
 2004 051   118   114   8703 20.6805  0.7170 10.3871  6.2062  3.1057 0.08662  6.757 11.833 21.282 16.250  6.4304 19.7495 31.5607
 2004 052   119   115   8776 22.0464  0.7365 10.6759  6.4055  3.5585 0.09400  6.688 11.626 22.660 17.593  6.4354 19.6554 31.6232
 2004 053   120   116   8840 20.0558  0.7660  9.6743  5.7207  3.5288 0.08355  6.606 11.401 23.047 17.731  6.4393 19.5798 31.6746
 2004 054   121   117   8911 23.1996  0.7989 10.5790  6.3930  4.4204 0.09651  6.518 11.168 24.812 20.140  6.4419 19.5566 31.6817
 2004 055   122   118   8971 20.8376  0.9277  9.4371  5.5211  4.6431 0.06386  6.393 10.868 25.209 21.251  6.4421 19.5563 31.6807
 2004 056   123   119   9031 21.4549  0.8492  9.3075  5.6085  4.9642 0.08656  6.281 10.604 26.860 21.869  6.4455 19.5559 31.6599
 2004 057   124   120   9083 19.8146  0.9098  8.4527  5.0519  5.1545 0.06161  6.145 10.301 28.615 22.378  6.4472 19.5621 31.6428
 2004 058   125   121   9128 18.4690  0.8863  7.5433  4.5024  5.4437 0.06437  6.008 10.004 30.182 23.199  6.4508 19.5676 31.6146
 2004 059   126   122   9170 16.4071  0.8972  7.1002  4.1698  4.3946 0.04691  5.859  9.690 25.645 21.371  6.4508 19.5682 31.6145
 2004 060   127   123   9218 15.4546  0.2854  6.8967  2.5465  4.1125 0.22014  5.867  9.690 24.901 20.770  6.3959 19.6769 31.8489
 2004 061   128   124   8996 16.2702  0.0000  6.7948  2.4169  4.3653 0.64471  5.986  9.498 25.838 21.353  6.3410 19.7905 32.0784
 2004 062   129   125   8778  8.4955  0.8741  3.7989  1.8343  3.3253 0.00000  5.735  8.691 23.368 19.881  6.3394 19.7869 32.0921
 2004 063   130   126   8627 10.4324  0.7372  4.4990  2.2759  3.2862 0.00000  5.494  7.991 24.815 19.408  6.3245 19.8063 32.1654
 2004 064   131   127   8502  8.0721  0.6392  3.3223  1.2828  3.2098 0.00000  5.261  7.381 26.155 19.504  6.3080 19.8327 32.2421
 2004 065   132   128   8387  6.1619  0.5834  2.1398  0.9725  3.4286 0.00000  5.028  6.835 27.455 21.055  6.3074 19.8335 32.2452
 2004 066   133   129   8279  3.8607  0.5722  0.1013  0.0291  4.3069 0.00000  4.766  6.326 29.937 25.317  6.3074 19.8337 32.2447
 2004 067   134   130   8192  1.5403  0.4601  0.0000  0.0000  2.7377 0.00000  4.542  5.905 21.758 20.550  6.3074 19.8337 32.2447
 2004 068   135   131   8119  2.0945  0.4248  0.0000  0.0000  2.9098 0.00000  4.323  5.527 24.089 21.176  6.3074 19.8337 32.2447
 2004 069   136   132   8059  2.5226  0.3859  0.0000  0.0000  2.9382 0.00000  4.116  5.191 26.020 20.979  6.3074 19.8337 32.2447
 2004 070   137   133   8008  1.5538  0.3728  0.0000  0.0000  3.2051 0.00000  3.909  4.879 26.340 22.684  6.3074 19.8337 32.2447
 2004 071   138   134   7966  1.4952  0.3214  0.0000  0.0000  2.6191 0.00000  3.725  4.611 24.323 20.208  6.3074 19.8337 32.2447
 2004 072   139   135   7931  1.0425  0.2964  0.0000  0.0000  2.4789 0.00000  3.551  4.370 23.443 19.826  6.3074 19.8337 32.2447

*DSSAT Cropping System Model Ver. 4.6.1.000 -release      OCT 28, 2016; 12:06:18
                                                                                
*RUN   5        : UYSB                      CRGRO046 UYSB1014    1              
 MODEL          : CRGRO046 - Soybean                                            
 EXPERIMENT     : UYSB1014 SN late to create DSS                                
 DATA PATH      :                                                               
 TREATMENT  1   : UYSB                      CRGRO046                            
  
@YEAR DOY   DAS   DAP   TWAD    PHAD    CMAD    CGRD    GRAD    MRAD    CHAD   CL%D   CS%D   TGNN   TGAV    GN%D    GL%D    GC%D
 2004 302     4     0      0  0.0000  0.0000  0.0000  0.0000  0.0000 0.00000  0.000  0.000 22.688 15.324  0.0000  0.0000  0.0000
 2004 303     5     1      0  0.0000  0.0000  0.0000  0.0000  0.0000 0.00000  0.000  0.000 27.304 20.690  0.0000  0.0000  0.0000
 2004 304     6     2      0  0.0000  0.0000  0.0000  0.0000  0.0000 0.00000  0.000  0.000 19.374 17.586  0.0000  0.0000  0.0000
 2004 305     7     3      0  0.0000  0.0000  0.0000  0.0000  0.0000 0.00000  0.000  0.000 22.821 18.923  0.0000  0.0000  0.0000
 2004 306     8     4      0  0.0000  0.0000  0.0000  0.0000  0.0000 0.00000  0.000  0.000 24.849 19.519  0.0000  0.0000  0.0000
 2004 307     9     5      0  0.0000  0.0000  0.0000  0.0000  0.0000 0.00000  0.000  0.000 27.393 20.417  0.0000  0.0000  0.0000
 2004 308    10     6      8  0.0000  0.0005  0.0003  0.0001  0.0000 0.00000  3.946  7.887 21.525 19.342  0.0000  0.0000  0.0000
 2004 309    11     7      8  0.0772  0.0005  0.0478  0.0169  0.0062 0.00000  3.898  7.792 21.399 19.144  0.0000  0.0000  0.0000
 2004 310    12     8      8  0.0658  0.0003  0.0412  0.0154  0.0034 0.00000  3.877  7.747 17.002 13.495  0.0000  0.0000  0.0000
 2004 311    13     9      9  0.1177  0.0002  0.0760  0.0262  0.0042 0.00000  3.865  7.728 16.593 12.048  0.0000  0.0000  0.0000
 2004 312    14    10     10  0.1541  0.0003  0.1004  0.0325  0.0063 0.00000  3.848  7.710 19.073 13.453  0.0000  0.0000  0.0000
 2004 313    15    11     11  0.1849  0.0005  0.1283  0.0345  0.0110 0.00000  3.832  7.668 23.034 17.808  0.0000  0.0000  0.0000
 2004 314    16    12     12  0.0996  0.0006  0.0590  0.0219  0.0076 0.00000  3.788  7.599 19.034 17.853  0.0000  0.0000  0.0000
 2004 315    17    13     12  0.1136  0.0006  0.0712  0.0227  0.0087 0.00000  3.749  7.537 21.074 18.210  0.0000  0.0000  0.0000
 2004 316    18    14     13  0.1630  0.0006  0.1051  0.0330  0.0091 0.00000  3.724  7.509 18.342 16.408  0.0000  0.0000  0.0000
 2004 317    19    15     15  0.1927  0.0006  0.1253  0.0378  0.0105 0.00000  3.701  7.491 19.136 16.414  0.0000  0.0000  0.0000
 2004 318    20    16     16  0.2113  0.0006  0.1383  0.0410  0.0109 0.00000  3.683  7.481 19.578 15.674  0.0000  0.0000  0.0000
 2004 319    21    17     17  0.2217  0.0008  0.1445  0.0416  0.0139 0.00000  3.655  7.457 21.554 17.578  0.0000  0.0000  0.0000
 2004 320    22    18     20  0.3560  0.0011  0.2457  0.0616  0.0254 0.00000  3.641  7.448 24.341 20.580  0.0000  0.0000  0.0000
 2004 321    23    19     22  0.3147  0.0012  0.1849  0.0698  0.0226 0.00000  3.625  7.396 22.560 19.874  0.0000  0.0000  0.0000
 2004 322    24    20     24  0.4092  0.0010  0.2521  0.0901  0.0232 0.00000  3.638  7.377 21.927 17.592  0.0000  0.0000  0.0000
 2004 323    25    21     27  0.4303  0.0010  0.2693  0.0934  0.0220 0.00000  3.648  7.372 20.558 16.294  0.0000  0.0000  0.0000
 2004 324    26    22     29  0.4006  0.0010  0.2523  0.0868  0.0193 0.00000  3.653  7.369 19.289 15.097  0.0000  0.0000  0.0000
 2004 325    27    23     32  0.4622  0.0011  0.2937  0.0990  0.0232 0.00000  3.653  7.374 20.155 15.605  0.0000  0.0000  0.0000
 2004 326    28    24     36  0.6216  0.0014  0.3975  0.1305  0.0338 0.00000  3.649  7.393 22.402 16.920  0.0000  0.0000  0.0000
 2004 327    29    25     41  0.7982  0.0021  0.5047  0.1677  0.0535 0.00000  3.638  7.403 25.161 19.822  0.0000  0.0000  0.0000
 2004 328    30    26     46  0.8711  0.0029  0.5254  0.1904  0.0794 0.00000  3.631  7.372 30.033 23.295  0.0000  0.0000  0.0000
 2004 329    31    27     48  0.4790  0.0033  0.2875  0.1027  0.0512 0.00000  3.594  7.299 24.796 22.681  0.0000  0.0000  0.0000
 2004 330    32    28     53  0.7662  0.0031  0.4802  0.1631  0.0605 0.00000  3.569  7.292 23.388 20.987  0.0000  0.0000  0.0000
 2004 331    33    29     60  1.1350  0.0035  0.7144  0.2399  0.0867 0.00000  3.553  7.317 25.301 21.610  0.0000  0.0000  0.0000
 2004 332    34    30     67  1.0962  0.0039  0.6797  0.2424  0.0838 0.00000  3.547  7.310 24.704 21.012  0.0000  0.0000  0.0000
 2004 333    35    31     75  1.3878  0.0045  0.8598  0.3068  0.1062 0.00000  3.546  7.315 25.352 21.517  0.0000  0.0000  0.0000
 2004 334    36    32     86  1.8607  0.0048  1.1697  0.4063  0.1275 0.00000  3.551  7.352 25.111 20.630  0.0000  0.0000  0.0000
 2004 335    37    33     99  2.0666  0.0051  1.3134  0.4460  0.1309 0.00000  3.552  7.387 24.027 19.582  0.0000  0.0000  0.0000
 2004 336    38    34    113  2.2925  0.0067  1.4394  0.4884  0.1720 0.00000  3.547  7.396 26.958 21.258  0.0000  0.0000  0.0000
 2004 337    39    35    128  2.5284  0.0092  1.5242  0.5432  0.2567 0.00000  3.542  7.369 31.226 25.168  0.0000  0.0000  0.0000
 2004 338    40    36    143  2.6548  0.0114  1.5914  0.5570  0.2949 0.00000  3.524  7.331 30.860 26.487  0.0000  0.0000  0.0000
 2004 339    41    37    159  2.5994  0.0115  1.6020  0.5437  0.2414 0.00000  3.501  7.307 27.204 23.476  0.0000  0.0000  0.0000
 2004 340    42    38    179  3.4508  0.0116  2.0671  0.8101  0.2894 0.00000  3.534  7.286 28.640 22.332  0.0000  0.0000  0.0000
 2004 341    43    39    199  3.4694  0.0139  2.0758  0.8118  0.2985 0.00000  3.545  7.251 26.567 22.732  0.0000  0.0000  0.0000
 2004 342    44    40    213  2.4764  0.0152  1.4682  0.5729  0.2401 0.00000  3.530  7.189 24.304 22.440  0.0000  0.0000  0.0000
 2004 343    45    41    238  4.3891  0.0174  2.6190  1.0198  0.3922 0.00000  3.537  7.168 26.724 23.570  0.0000  0.0000  0.0000
 2004 344    46    42    275  6.2623  0.0158  3.8290  1.4882  0.4117 0.00000  3.569  7.203 23.991 20.479  0.0000  0.0000  0.0000
 2004 345    47    43    320  7.3976  0.0175  4.5423  1.7625  0.4586 0.00000  3.596  7.240 23.999 19.698  0.0000  0.0000  0.0000
 2004 346    48    44    368  7.8575  0.0185  4.8541  1.8806  0.4445 0.00000  3.616  7.270 22.627 18.398  0.0000  0.0000  0.0000
 2004 347    49    45    428 10.0070  0.0256  6.1139  2.3643  0.6764 0.00000  3.630  7.289 25.841 20.573  0.0000  0.0000  0.0000
[...]
 2010 058   125   121   7368 15.8254  0.8504  7.5751  3.2030  3.5700 0.00000  5.721  8.872 24.022 20.601  6.4205 20.0939 31.2781
 2010 059   126   122   7214 12.2311  0.7479  5.3310  2.4999  3.6964 0.00000  5.465  8.078 25.048 22.163  6.3885 20.1572 31.4143
 2010 060   127   123   7074 10.2197  0.4826  3.1904  1.7634  5.2405 0.05362  5.292  7.507 34.611 27.062  6.3931 20.1567 31.3866
 2010 061   128   124   6959  7.1636  0.5648  2.6441  1.2803  3.4793 0.00000  5.047  6.895 27.560 22.897  6.3921 20.1593 31.3901
 2010 062   129   125   6853  3.4690  0.4908  0.6920  0.1985  3.0921 0.00000  4.804  6.363 26.909 22.603  6.3918 20.1598 31.3913
 2010 063   130   126   6766  4.2930  0.4612  0.8358  0.2397  3.7153 0.00000  4.559  5.878 28.694 25.279  6.3921 20.1607 31.3889
 2010 064   131   127   6698  3.7006  0.3905  0.7500  0.2151  3.1515 0.00000  4.337  5.463 27.784 23.232  6.3918 20.1615 31.3895
 2010 065   132   128   6638  2.8101  0.3521  0.1049  0.0301  3.0308 0.00000  4.119  5.097 27.419 23.188  6.3918 20.1616 31.3895
 2010 066   133   129   6589  2.2448  0.3165  0.0000  0.0000  2.8861 0.00000  3.912  4.773 27.421 22.765  6.3918 20.1616 31.3895
 2010 067   134   130   6548  1.3091  0.2975  0.0000  0.0000  2.8873 0.00000  3.710  4.478 26.105 23.441  6.3918 20.1616 31.3895
 2010 068   135   131   6513  1.2962  0.2730  0.0000  0.0000  2.8190 0.00000  3.520  4.212 25.833 23.240  6.3918 20.1616 31.3895
 2010 069   136   132   6484  0.9683  0.2606  0.0000  0.0000  3.0860 0.00000  3.334  3.966 27.959 24.550  6.3918 20.1616 31.3895

*DSSAT Cropping System Model Ver. 4.6.1.000 -release      OCT 28, 2016; 12:06:18
                                                                                
*RUN  11        : UYSB                      CRGRO046 UYSB1014    1              
 MODEL          : CRGRO046 - Soybean                                            
 EXPERIMENT     : UYSB1014 SN late to create DSS                                
 DATA PATH      :                                                               
 TREATMENT  1   : UYSB                      CRGRO046                            
  
@YEAR DOY   DAS   DAP   TWAD    PHAD    CMAD    CGRD    GRAD    MRAD    CHAD   CL%D   CS%D   TGNN   TGAV    GN%D    GL%D    GC%D
 2010 302     4     0      0  0.0000  0.0000  0.0000  0.0000  0.0000 0.00000  0.000  0.000 19.226 15.865  0.0000  0.0000  0.0000
 2010 303     5     1      0  0.0000  0.0000  0.0000  0.0000  0.0000 0.00000  0.000  0.000 19.620 15.008  0.0000  0.0000  0.0000
 2010 304     6     2      0  0.0000  0.0000  0.0000  0.0000  0.0000 0.00000  0.000  0.000 22.248 16.706  0.0000  0.0000  0.0000
 2010 305     7     3      0  0.0000  0.0000  0.0000  0.0000  0.0000 0.00000  0.000  0.000 22.900 17.714  0.0000  0.0000  0.0000
 2010 306     8     4      0  0.0000  0.0000  0.0000  0.0000  0.0000 0.00000  0.000  0.000 24.242 17.410  0.0000  0.0000  0.0000
 2010 307     9     5      0  0.0000  0.0000  0.0000  0.0000  0.0000 0.00000  0.000  0.000 27.535 20.416  0.0000  0.0000  0.0000
 2010 308    10     6      8  0.0000  0.0006  0.0004  0.0002  0.0000 0.00000  3.936  7.866 28.717 22.277  0.0000  0.0000  0.0000
 2010 309    11     7      9  0.1897  0.0005  0.1241  0.0387  0.0118 0.00000  3.908  7.795 24.711 19.236  0.0000  0.0000  0.0000
 2010 310    12     8     10  0.1953  0.0005  0.1225  0.0422  0.0110 0.00000  3.869  7.745 23.660 17.541  0.0000  0.0000  0.0000
 2010 311    13     9     11  0.2348  0.0007  0.1463  0.0485  0.0197 0.00000  3.824  7.677 29.741 22.296  0.0000  0.0000  0.0000
 2010 312    14    10     13  0.2623  0.0009  0.1614  0.0531  0.0269 0.00000  3.776  7.608 32.607 25.054  0.0000  0.0000  0.0000
 2010 313    15    11     13  0.0653  0.0003  0.0411  0.0154  0.0034 0.00000  3.766  7.584 13.638 11.204  0.0000  0.0000  0.0000
 2010 314    16    12     15  0.1934  0.0004  0.1277  0.0406  0.0081 0.00000  3.754  7.581 19.246 12.766  0.0000  0.0000  0.0000
 2010 315    17    13     16  0.1830  0.0004  0.1208  0.0384  0.0074 0.00000  3.744  7.576 17.977 12.319  0.0000  0.0000  0.0000
 2010 316    18    14     17  0.2112  0.0005  0.1389  0.0434  0.0097 0.00000  3.729  7.564 18.891 14.021  0.0000  0.0000  0.0000
 2010 317    19    15     19  0.2574  0.0006  0.1694  0.0518  0.0127 0.00000  3.712  7.552 20.270 15.077  0.0000  0.0000  0.0000
 2010 318    20    16     20  0.2484  0.0008  0.1626  0.0497  0.0142 0.00000  3.689  7.526 21.029 16.230  0.0000  0.0000  0.0000
 2010 319    21    17     22  0.2834  0.0011  0.1847  0.0558  0.0189 0.00000  3.658  7.490 21.979 18.326  0.0000  0.0000  0.0000
 2010 320    22    18     24  0.3256  0.0011  0.2131  0.0642  0.0207 0.00000  3.631  7.463 21.480 18.077  0.0000  0.0000  0.0000
 2010 321    23    19     26  0.3595  0.0012  0.2226  0.0827  0.0237 0.00000  3.634  7.418 22.970 18.242  0.0000  0.0000  0.0000
 2010 322    24    20     29  0.4364  0.0013  0.2710  0.1025  0.0266 0.00000  3.643  7.392 23.607 17.410  0.0000  0.0000  0.0000
 2010 323    25    21     31  0.2958  0.0014  0.1823  0.0677  0.0221 0.00000  3.630  7.347 23.771 17.466  0.0000  0.0000  0.0000
 2010 324    26    22     34  0.5253  0.0020  0.3234  0.1156  0.0441 0.00000  3.615  7.314 27.225 21.564  0.0000  0.0000  0.0000
 2010 325    27    23     37  0.6495  0.0026  0.3995  0.1376  0.0608 0.00000  3.590  7.288 26.525 23.981  0.0000  0.0000  0.0000
 2010 326    28    24     42  0.7314  0.0022  0.4577  0.1612  0.0521 0.00000  3.586  7.294 24.641 20.305  0.0000  0.0000  0.0000
 2010 327    29    25     46  0.6816  0.0025  0.4231  0.1512  0.0517 0.00000  3.577  7.279 24.309 20.403  0.0000  0.0000  0.0000
 2010 328    30    26     50  0.7301  0.0031  0.4486  0.1591  0.0638 0.00000  3.560  7.258 26.815 21.870  0.0000  0.0000  0.0000
 2010 329    31    27     58  1.1974  0.0027  0.7597  0.2601  0.0765 0.00000  3.567  7.313 25.633 19.146  0.0000  0.0000  0.0000
 2010 330    32    28     66  1.3498  0.0039  0.8415  0.2855  0.1116 0.00000  3.559  7.335 28.514 22.493  0.0000  0.0000  0.0000
 2010 331    33    29     74  1.3605  0.0047  0.8197  0.3011  0.1302 0.00000  3.561  7.316 30.884 23.716  0.0000  0.0000  0.0000
 2010 332    34    30     79  0.9475  0.0034  0.5929  0.2182  0.0571 0.00000  3.562  7.305 20.180 16.954  0.0000  0.0000  0.0000
 2010 333    35    31     86  1.1284  0.0032  0.7160  0.2553  0.0609 0.00000  3.566  7.317 20.878 15.788  0.0000  0.0000  0.0000
 2010 334    36    32     99  2.0187  0.0044  1.2841  0.4377  0.1241 0.00000  3.572  7.368 26.324 17.901  0.0000  0.0000  0.0000
 2010 335    37    33    112  2.2343  0.0069  1.3860  0.4757  0.1875 0.00000  3.565  7.373 29.209 22.327  0.0000  0.0000  0.0000
 2010 336    38    34    126  2.3463  0.0088  1.4184  0.4942  0.2449 0.00000  3.551  7.352 32.132 25.035  0.0000  0.0000  0.0000
 2010 337    39    35    141  2.4553  0.0098  1.5016  0.5248  0.2289 0.00000  3.538  7.329 28.822 23.553  0.0000  0.0000  0.0000
 2010 338    40    36    158  2.9551  0.0093  1.8412  0.6319  0.2342 0.00000  3.534  7.339 28.399 21.194  0.0000  0.0000  0.0000
 2010 339    41    37    179  3.4117  0.0117  2.1224  0.7168  0.2879 0.00000  3.523  7.342 28.385 22.471  0.0000  0.0000  0.0000
 2010 340    42    38    202  3.6871  0.0118  2.3169  0.7740  0.2841 0.00000  3.516  7.352 28.052 20.703  0.0000  0.0000  0.0000
 2010 341    43    39    225  3.9879  0.0123  2.3921  0.9360  0.3296 0.00000  3.552  7.332 30.583 20.367  0.0000  0.0000  0.0000
 2010 342    44    40    246  3.6361  0.0148  2.1938  0.8569  0.2859 0.00000  3.563  7.295 26.885 20.146  0.0000  0.0000  0.0000
 2010 343    45    41    276  5.3215  0.0223  3.1173  1.2147  0.5651 0.00000  3.568  7.247 30.369 25.997  0.0000  0.0000  0.0000
 2010 344    46    42    308  5.5395  0.0186  3.2891  1.2794  0.5179 0.00000  3.580  7.234 32.154 22.370  0.0000  0.0000  0.0000
 2010 345    47    43    337  5.1376  0.0241  3.0357  1.1783  0.5121 0.00000  3.572  7.192 30.118 23.452  0.0000  0.0000  0.0000
 2010 346    48    44    353  2.6041  0.0137  1.5996  0.6202  0.1684 0.00000  3.565  7.169 19.240 15.047  0.0000  0.0000  0.0000
 2010 347    49    45    395  6.8786  0.0154  4.2745  1.6555  0.3503 0.00000  3.590  7.204 23.348 15.142  0.0000  0.0000  0.0000
 2010 348    50    46    452  9.5882  0.0227  5.9593  2.2102  0.6193 0.00000  3.634  7.234 27.130 18.602  0.0000  0.0000  0.0000
 2010 349    51    47    514 10.6388  0.0349  6.5389  2.3860  0.9058 0.00000  3.660  7.230 29.351 22.758  0.0000  0.0000  0.0000
 2010 350    52    48    583 12.2192  0.0418  7.0816  2.8965  1.0810 0.00000  3.644  7.220 29.538 23.447  0.0000  0.0000  0.0000
 2010 351    53    49    664 13.8929  0.0517  8.5076  3.0166  1.3693 0.00000  3.655  7.205 30.505 25.130  0.0000  0.0000  0.0000
 2010 352    54    50    736 13.0481  0.0609  7.3203  3.0358  1.3777 0.01492  3.634  7.211 30.085 25.463  0.0000  0.0000  0.0000
 2010 353    55    51    780  8.0836  0.0530  4.7634  1.8598  0.7227 0.03321  3.634  7.256 22.902 20.753  0.0000  0.0000  0.0000
 2010 354    56    52    863 14.4596  0.0720  8.5390  3.1385  1.4309 0.11178  3.706  7.496 27.143 24.563  0.0000  0.0000  0.0000
 2010 355    57    53    982 20.6299  0.0752 11.9735  4.5747  1.8828 0.22276  3.844  7.943 29.686 23.990  0.0000  0.0000  0.0000
 2010 356    58    54   1117 23.3446  0.0956 13.4705  5.1440  2.3505 0.32862  4.004  8.452 30.806 25.432  0.0000  0.0000  0.0000
 2010 357    59    55   1263 25.5046  0.1132 14.9484  5.5345  2.5328 0.45244  4.210  9.011 30.419 25.080  0.0000  0.0000  0.0000
 2010 358    60    56   1327 12.8592  0.1296  7.6585  2.5784  1.4573 0.27857  4.306  9.234 25.696 23.259  0.0000  0.0000  0.0000
 2010 359    61    57   1483 28.2103  0.1523 15.2650  6.2917  3.0372 0.65272  4.486  9.838 30.831 26.066  0.0000  0.0000  0.0000
 2010 360    62    58   1657 30.9154  0.1643 17.2406  6.6134  3.1073 0.83693  4.716 10.497 31.032 24.654  0.0000  0.0000  0.0000
 2010 361    63    59   1831 32.0911  0.2080 18.3142  6.6790  3.5443 1.00247  4.987 11.149 31.437 25.883  0.0000  0.0000  0.0000
 2010 362    64    60   2042 33.8991  0.2126 21.2242  6.5903  2.9498 1.27731  5.259 11.871 27.656 22.424  0.0000  0.0000  0.0000
 2010 363    65    61   2247 32.8964  0.2819 20.7565  5.9975  3.4014 1.38168  5.498 12.495 28.321 24.343  0.0000  0.0000  0.0000
 2010 364    66    62   2484 37.1352  0.0000 21.4561  5.7670  3.2626 3.58088  6.356 14.887 27.060 22.115  0.0000  0.0000  0.0000
 2010 365    67    63   2719 37.7225  0.0000 21.5141  5.6602  3.9476 3.57578  7.081 16.838 28.765 24.106  0.0000  0.0000  0.0000
 2011 001    68    64   2897 32.3783  0.4938 18.0240  6.4726  3.7189 1.55575  7.148 16.981 29.164 23.967  0.0000  0.0000  0.0000
 2011 002    69    65   3054 28.5290  0.5104 16.1986  5.6345  3.1492 1.47483  7.218 17.117 25.884 22.622  0.0000  0.0000  0.0000
 2011 003    70    66   3151 19.0433  0.4999 10.9596  3.4747  2.3912 0.98332  7.252 17.151 23.424 21.345  0.0000  0.0000  0.0000
 2011 004    71    67   3302 28.9545  0.6130 16.0073  5.3534  3.8073 1.55226  7.327 17.299 28.546 24.388  0.0000  0.0000  0.0000
 2011 005    72    68   3447 28.2977  0.6694 15.6427  5.1606  4.0068 1.52591  7.401 17.431 28.852 24.981  0.0000  0.0000  0.0000
 2011 006    73    69   3706 42.4380  0.0000 19.7687  5.2929  5.2394 8.28343  8.747 21.090 30.294 25.204  0.0000  0.0000  0.0000
 2011 007    74    70   3939 42.4793  0.0000 22.6041  6.3975  6.8714 3.05217  9.073 21.813 33.141 28.983  0.0000  0.0000  0.0000
 2011 008    75    71   4156 39.0791  1.0334 22.7230  6.6447  5.7208 2.35057  9.113 21.824 30.699 26.433  0.0000  0.0000  0.0000
 2011 009    76    72   4369 40.2384  1.1111 22.5737  7.0105  6.2711 2.28950  9.147 21.829 31.556 27.183  0.0000  0.0000  0.0000
 2011 010    77    73   4496 26.7204  0.7615 14.4617  4.7640  4.1092 1.26132  9.180 21.834 28.881 23.254  0.0000  0.0000  0.0000
 2011 011    78    74   4618 27.5325  1.0386 14.6878  5.3481  4.0618 1.04455  9.159 21.704 25.813 23.197  0.0000  0.0000  0.0000
 2011 012    79    75   4783 34.7164  1.0907 18.9369  6.4808  4.7876 1.72064  9.184 21.694 27.055 23.757  0.0000  0.0000  0.0000
 2011 013    80    76   4999 42.2055  1.0889 22.8606  7.8991  5.2308 2.35634  9.258 21.813 27.441 23.319  0.0000  0.0000  0.0000
 2011 014    81    77   5224 44.1309  1.1642 23.8171  8.4440  5.6273 2.41404  9.333 21.933 27.765 23.715  0.0000  0.0000  0.0000
 2011 015    82    78   5443 45.3048  1.2977 23.7552  8.5184  6.9070 2.32222  9.388 22.012 31.054 25.930  0.0000  0.0000  0.0000
 2011 016    83    79   5601 36.4046  1.3387 18.4865  6.4653  7.0508 1.48962  9.392 21.961 32.624 27.427  0.0000  0.0000  0.0000
 2011 017    84    80   5760 36.4044  1.3309 19.0650  7.0819  5.8152 1.16350  9.376 21.849 28.848 24.511  0.0000  0.0000  0.0000
 2011 018    85    81   5940 43.0638  1.3895 22.3437  8.2821  6.5427 1.96354  9.420 21.889 30.061 24.722  0.0000  0.0000  0.0000
 2011 019    86    82   6131 43.7160  1.4785 23.0725  8.3424  6.8940 1.78233  9.446 21.882 30.530 25.119  6.4685 20.5000 30.5718
 2011 020    87    83   6306 44.1659  1.5465 22.4421  8.8787  6.8565 1.60148  9.446 21.827 29.790 24.810  6.4516 20.5000 30.6776
 2011 021    88    84   6489 43.8090  1.3740 23.1932  9.0147  5.6217 1.60924  9.475 21.833 28.035 21.622  6.3286 20.3426 31.6039
 2011 022    89    85   6626 42.0125  1.7182 20.8399  8.7645  7.1846 1.00419  9.429 21.645 30.020 25.398  6.4004 20.4113 31.0865
 2011 023    90    86   6751 43.9042  1.7829 21.9048  9.1051  7.6447 0.95520  9.377 21.441 30.502 25.845  6.4512 20.4453 30.7349
 2011 024    91    87   6848 39.8941  1.9945 18.8298  8.2189  9.1166 0.40670  9.262 21.075 32.989 29.084  6.5804 20.4645 29.9082
 2011 025    92    88   6937 38.9279  1.9013 18.5849  8.6294  7.9418 0.00000  9.124 20.644 31.088 26.933  6.5959 20.4758 29.8000
 2011 026    93    89   6948 21.2004  1.7156 10.2265  3.9933  6.6298 0.05902  9.002 20.263 33.817 26.402  6.5922 20.4821 29.8163
 2011 027    94    90   7026 35.7741  1.8629 16.2966  8.1930  7.5496 0.00000  8.870 19.834 30.680 26.526  6.5924 20.4867 29.8107
 2011 028    95    91   7125 40.2898  1.8851 18.9045  9.2046  8.3401 0.00000  8.736 19.395 31.448 27.222  6.6059 20.4896 29.7233
 2011 029    96    92   7217 40.1671  1.8403 18.9454  9.3059  8.0032 0.00000  8.605 18.965 30.874 26.469  6.6024 20.4917 29.7434
 2011 030    97    93   7233 23.4797  1.7976 11.5252  5.1272  6.5011 0.00000  8.478 18.540 30.413 25.866  6.5900 20.4932 29.8192
 2011 031    98    94   7200 19.1176  1.7846  9.6129  4.0422  6.3054 0.00000  8.353 18.113 30.636 26.161  6.5850 20.4943 29.8493
 2011 032    99    95   7269 33.9718  1.6424 16.2802  8.6321  6.1142 0.00000  8.246 17.711 26.626 23.654  6.5408 20.4954 30.1249
 2011 033   100    96   7390 41.9360  1.4488 20.7612 10.5872  5.9779 0.00000  8.154 17.353 28.104 21.553  6.4908 20.4465 30.4857
 2011 034   101    97   7489 40.0289  1.6047 18.9117  9.7651  7.8263 0.00000  8.043 16.949 32.183 25.346  6.4905 20.4538 30.4803
 2011 035   102    98   7552 32.6196  1.6363 15.5396  8.1917  6.8953 0.00000  7.925 16.531 29.345 24.943  6.4854 20.4601 30.5063
 2011 036   103    99   7638 38.8982  1.6499 17.8814  9.6697  8.4539 0.00000  7.804 16.099 32.082 26.786  6.5013 20.4650 30.4019
 2011 037   104   100   7714 32.6232  1.2045 15.3043  8.4328  7.0179 0.12018  7.754 15.834 28.950 25.086  6.5321 20.3968 30.2774
 2011 038   105   101   7764 29.8080  1.2915 14.3048  7.5166  6.8423 0.08602  7.686 15.523 28.931 25.032  6.5476 20.3606 30.2172
 2011 039   106   102   7763 16.8885  1.2820  9.5185  3.6453  4.4243 0.02573  7.600 15.180 22.396 21.394  6.5322 20.3322 30.3417
 2011 040   107   103   7804 20.4112  1.1661 10.9616  4.8068  4.4578 0.04668  7.526 14.871 22.066 20.993  6.5198 20.2856 30.4656
 2011 041   108   104   7821 20.6440  1.1812 10.9426  4.7749  4.6698 0.04287  7.446 14.550 23.741 21.381  6.5089 20.2556 30.5635
 2011 042   109   105   7913 34.1552  1.0459 16.2603  8.8174  6.1319 0.10191  7.392 14.287 25.211 23.030  6.5102 20.2326 30.5789
 2011 043   110   106   7978 25.8264  1.0425 12.7274  6.4518  5.1593 0.07725  7.325 14.006 24.686 21.720  6.5058 20.2024 30.6366
 2011 044   111   107   8087 33.5740  0.8441 15.8120  9.0598  5.4567 0.12725  7.289 13.805 25.272 21.305  6.5053 20.1490 30.6930
 2011 045   112   108   8195 32.6824  0.8652 15.4698  9.0843  5.2025 0.11185  7.241 13.585 25.063 20.847  6.5021 20.0961 30.7661
 2011 046   113   109   8303 30.6402  0.6821 14.6839  9.0306  4.2639 0.13110  7.216 13.430 24.460 18.315  6.5046 19.9526 30.8938
 2011 047   114   110   8402 30.9781  0.9071 14.3200  8.5879  5.4748 0.10393  7.148 13.184 26.837 21.622  6.5033 19.9350 30.9195
 2011 048   115   111   8486 29.9840  1.0024 13.0633  7.8697  6.9193 0.11005  7.063 12.904 29.291 25.184  6.5168 19.9310 30.8389
 2011 049   116   112   8559 27.0715  1.0639 11.8023  6.9967  6.6513 0.08419  6.953 12.586 29.270 25.128  6.5258 19.9317 30.7820
 2011 050   117   113   8638 26.3941  0.9278 11.9065  7.1671  5.2760 0.09216  6.858 12.312 25.678 22.287  6.5260 19.9250 30.7876
 2011 051   118   114   8704 23.2193  0.9609 10.4656  6.1704  5.0528 0.07663  6.746 12.015 25.323 22.290  6.5256 19.9206 30.7943
 2011 052   119   115   8729 14.6461  1.1936  6.6052  3.1994  5.1823 0.01639  6.573 11.601 27.368 23.978  6.5243 19.9287 30.7947
 2011 053   120   116   8781 20.6724  1.0485  8.9349  5.2480  5.5362 0.05117  6.425 11.248 27.224 23.977  6.5258 19.9322 30.7813
 2011 054   121   117   8788 10.4537  1.0719  4.9111  2.1708  3.9647 0.01058  6.256 10.863 22.575 21.576  6.5223 19.9334 30.8022
 2011 055   122   118   8825 15.9446  0.9749  7.1740  3.9869  4.2042 0.02990  6.102 10.517 23.849 21.389  6.5188 19.9304 30.8272
 2011 056   123   119   8863 16.0841  0.9304  6.9435  3.8452  4.4660 0.04386  5.953 10.191 24.506 22.189  6.5178 19.9288 30.8347
 2011 057   124   120   8922 19.9031  0.8444  8.6463  5.3385  4.3370 0.05392  5.817  9.898 24.211 21.218  6.5157 19.9200 30.8570
 2011 058   125   121   8976 17.3031  0.6502  7.6042  4.9139  3.3884 0.08137  5.719  9.689 23.536 18.299  6.5177 19.8694 30.8950
 2011 059   126   122   9028 17.5215  0.7761  7.6058  4.8960  3.8434 0.04793  5.585  9.413 26.025 19.400  6.5156 19.8443 30.9332
 2011 060   127   123   9092 16.1900  0.0000  5.8867  2.0733  4.0371 2.13335  5.941 10.430 25.123 20.814  6.4618 19.9453 31.1685
 2011 061   128   124   8851 15.4657  1.0648  6.9704  3.0032  4.4519 0.00000  5.676  9.479 27.211 21.978  6.4143 20.0406 31.3700
 2011 062   129   125   8653 12.3428  0.9047  5.1273  2.2628  4.3104 0.00000  5.416  8.643 27.871 22.569  6.3825 20.1069 31.5027
 2011 063   130   126   8490  9.7378  0.7786  3.6976  1.7551  4.0533 0.00000  5.161  7.909 27.255 22.843  6.3661 20.1417 31.5699
 2011 064   131   127   8355  7.6096  0.6196  2.9436  1.4841  3.1086 0.00000  4.936  7.294 25.733 19.936  6.3565 20.1537 31.6185
 2011 065   132   128   8232  5.5791  0.5782  1.6918  0.7644  3.5360 0.00000  4.704  6.737 27.539 22.455  6.3560 20.1547 31.6203
 2011 066   133   129   8124  3.8195  0.5257  0.5038  0.1445  3.7155 0.00000  4.469  6.239 28.726 23.857  6.3560 20.1551 31.6199
 2011 067   134   130   8032  3.1880  0.4854  0.0000  0.0000  4.0208 0.00000  4.233  5.790 29.773 25.473  6.3560 20.1551 31.6199
 2011 068   135   131   7955  2.3500  0.4297  0.0000  0.0000  3.6894 0.00000  4.013  5.396 29.101 24.661  6.3560 20.1551 31.6199
 2011 069   136   132   7892  1.8497  0.3849  0.0000  0.0000  3.3213 0.00000  3.806  5.048 27.330 23.638  6.3560 20.1551 31.6199
 2011 070   137   133   7840  1.7292  0.3562  0.0000  0.0000  3.5197 0.00000  3.607  4.733 28.902 24.500  6.3560 20.1551 31.6199
 2011 071   138   134   7795  1.3162  0.3296  0.0000  0.0000  3.4315 0.00000  3.418  4.448 28.336 24.469  6.3560 20.1551 31.6199
 2011 072   139   135   7760  0.9182  0.2432  0.0000  0.0000  1.7248 0.00000  3.274  4.231 20.567 16.347  6.3560 20.1551 31.6199
