*PLANT N BALANCE

*DSSAT Cropping System Model Ver. 4.6.1.000 -release      DEC 14, 2016; 12:37:38
                                                                                
*RUN   1        : UYSB                      CRGRO046 UYSB1074    1              
 MODEL          : CRGRO046 - Soybean                                            
 EXPERIMENT     : UYSB1074 SN late to create DSS                                
 DATA PATH      :                                                               
 TREATMENT  1   : UYSB                      CRGRO046                            
                                                                                
                                                                                
 CROP           : Soybean          CULTIVAR : GM 4 URUGUAY     ECOTYPE :INDETE  
 STARTING DATE  : DEC 12 1990                                                   
 PLANTING DATE  : DEC 15 1990        PLANTS/m2 :  7.0     ROW SPACING :  15.cm  
 WEATHER        : UYTA   1990                                                   
 SOIL           : UYSN1J6O17     TEXTURE : CL    -        YOUNG_Brun_E_Ti_Fr    
 SOIL INITIAL C : DEPTH: 70cm EXTR. H2O: 99.9mm  NO3: 19.5kg/ha  NH4: 13.8kg/ha 
 WATER BALANCE  : AUTOMATIC IRRIGATION - REFILL PROFILE                         
 IRRIGATION     : AUTOMATIC - PLANTING -> MATURITY [ SOIL DEPTH: 0.30m 50.%]    
 NITROGEN BAL.  : SOIL-N, N-UPTAKE & DYNAMIC N-FIXATION SIMULATION              
 N-FERTILIZER   : NO N-FERTILIZER APPLIED                                       
 RESIDUE/MANURE : INITIAL :     0 kg/ha ;       0 kg/ha IN     0 APPLICATIONS   
 ENVIRONM. OPT. : DAYL=    0.00  SRAD=    0.00  TMAX=    0.00  TMIN=    0.00    
                  RAIN=    0.00  CO2 =    0.00  DEW =    0.00  WIND=    0.00    
 SIMULATION OPT : WATER   :Y  NITROGEN:Y  N-FIX:Y  PHOSPH :N  PESTS  :N         
                  PHOTO   :C  ET      :R  INFIL:S  HYDROL :R  SOM    :G         
                  CO2 355ppm  NSWIT   :1  EVAP :S  SOIL   :2  STEMP  :D         
 MANAGEMENT OPT : PLANTING:R  IRRIG   :A  FERT :N  RESIDUE:N  HARVEST:M         
                  WEATHER :M  TILLAGE :N                                        
                                                                                
*SUMMARY OF SOIL AND GENETIC INPUT PARAMETERS                                   
                                                                                
   SOIL LOWER UPPER   SAT  EXTR  INIT   ROOT   BULK     pH    NO3    NH4    ORG 
  DEPTH LIMIT LIMIT    SW    SW    SW   DIST   DENS                          C  
   cm   cm3/cm3    cm3/cm3    cm3/cm3         g/cm3         ugN/g  ugN/g     %  
------------------------------------------------------------------------------- 
  0-  5 0.167 0.343 0.449 0.176 0.219   1.00   1.19   6.40   5.00   1.50   3.25 
  5- 15 0.167 0.343 0.449 0.176 0.219   1.00   1.19   6.40   5.00   1.50   3.25 
 15- 18 0.167 0.343 0.449 0.176 0.219   1.00   1.19   6.40   5.00   1.50   3.25 
 18- 32 0.175 0.334 0.446 0.159 0.222   0.50   1.26   6.40   5.00   1.50   2.58 
 32- 42 0.213 0.342 0.449 0.129 0.342   0.00   1.35   6.70   0.00   1.50   1.57 
 42- 56 0.189 0.307 0.436 0.118 0.307   0.00   1.41   7.00   0.00   1.50   0.94 
 56- 70 0.189 0.307 0.436 0.118 0.307   0.00   1.41   7.00   0.00   1.50   0.94 
                                                                                
TOT- 70  12.9  22.9  31.0  10.0  19.1  <--cm   -  kg/ha-->   19.5   13.8 173432 
SOIL ALBEDO    : 0.12      EVAPORATION LIMIT :10.00         MIN. FACTOR  : 1.00 
RUNOFF CURVE # : 0.75      DRAINAGE RATE     : 0.25         FERT. FACTOR : 1.00 
                                                                                
 Soybean    CULTIVAR :UY0141-GM 4 URUGUAY       ECOTYPE :INDETE                 
 CSDVAR :13.39  PPSEN  : 0.29  EMG-FLW:20.80  FLW-FSD:18.00  FSD-PHM : 36.00    
 WTPSD  :0.200  SDPDVR : 1.70  SDFDUR :26.00  PODDUR :10.00  XFRUIT  :  1.00    
 THRESH : 77.0  SDPRO  :0.405  SDLIP   : 0.205                                  


   PLANT COMPONENT  HARVEST     LOST*   TOTAL  BALANCE
   ---------------  -------- kg[N]/ha -------  -------
   Leaf N              0.79    14.88    15.67
   Stem N              4.35     2.55     6.90
   Shell N            12.88    15.64    28.52
   Seed N            172.57     0.00   172.57
   Root N              4.83     3.76     8.59
   Nodule N            2.57     2.34     4.92
   Total N           197.99    39.17   237.16
   N leakage                             9.17
   TOTAL N                                      246.32


   N INPUTS TO SYSTEM                kg[N]/ha
   ------------------                --------
   Seed N At Planting                    0.68
   N2 Fixed                            161.19
   N Uptake from Soil                   84.46
   TOTAL N                                      246.33

   * Lost due to senescence, freeze, pest or disease damage.

*******************************************************************************

*DSSAT Cropping System Model Ver. 4.6.1.000 -release      DEC 14, 2016; 12:37:38
                                                                                
*RUN   2        : UYSB                      CRGRO046 UYSB1074    1              
 MODEL          : CRGRO046 - Soybean                                            
 EXPERIMENT     : UYSB1074 SN late to create DSS                                
 DATA PATH      :                                                               
 TREATMENT  1   : UYSB                      CRGRO046                            
                                                                                
                                                                                
 CROP           : Soybean          CULTIVAR : GM 4 URUGUAY     ECOTYPE :INDETE  
 STARTING DATE  : DEC 12 1991                                                   
 PLANTING DATE  : DEC 15 1991        PLANTS/m2 :  7.0     ROW SPACING :  15.cm  
 WEATHER        : UYTA9101                                                      
 SOIL           : UYSN1J6O17     TEXTURE : CL    -        YOUNG_Brun_E_Ti_Fr    
 SOIL INITIAL C : DEPTH: 70cm EXTR. H2O: 99.9mm  NO3: 19.5kg/ha  NH4: 13.8kg/ha 
 WATER BALANCE  : AUTOMATIC IRRIGATION - REFILL PROFILE                         
 IRRIGATION     : AUTOMATIC - PLANTING -> MATURITY [ SOIL DEPTH: 0.30m 50.%]    
 NITROGEN BAL.  : SOIL-N, N-UPTAKE & DYNAMIC N-FIXATION SIMULATION              
 N-FERTILIZER   : NO N-FERTILIZER APPLIED                                       
 RESIDUE/MANURE : INITIAL :     0 kg/ha ;       0 kg/ha IN     0 APPLICATIONS   
 ENVIRONM. OPT. : DAYL=    0.00  SRAD=    0.00  TMAX=    0.00  TMIN=    0.00    
                  RAIN=    0.00  CO2 =    0.00  DEW =    0.00  WIND=    0.00    
 SIMULATION OPT : WATER   :Y  NITROGEN:Y  N-FIX:Y  PHOSPH :N  PESTS  :N         
                  PHOTO   :C  ET      :R  INFIL:S  HYDROL :R  SOM    :G         
                  CO2 356ppm  NSWIT   :1  EVAP :S  SOIL   :2  STEMP  :D         
 MANAGEMENT OPT : PLANTING:R  IRRIG   :A  FERT :N  RESIDUE:N  HARVEST:M         
                  WEATHER :M  TILLAGE :N                                        
                                                                                
*SUMMARY OF SOIL AND GENETIC INPUT PARAMETERS                                   
                                                                                
   SOIL LOWER UPPER   SAT  EXTR  INIT   ROOT   BULK     pH    NO3    NH4    ORG 
  DEPTH LIMIT LIMIT    SW    SW    SW   DIST   DENS                          C  
   cm   cm3/cm3    cm3/cm3    cm3/cm3         g/cm3         ugN/g  ugN/g     %  
------------------------------------------------------------------------------- 
  0-  5 0.167 0.343 0.449 0.176 0.219   1.00   1.19   6.40   5.00   1.50   3.25 
  5- 15 0.167 0.343 0.449 0.176 0.219   1.00   1.19   6.40   5.00   1.50   3.25 
 15- 18 0.167 0.343 0.449 0.176 0.219   1.00   1.19   6.40   5.00   1.50   3.25 
 18- 32 0.175 0.334 0.446 0.159 0.222   0.50   1.26   6.40   5.00   1.50   2.58 
 32- 42 0.213 0.342 0.449 0.129 0.342   0.00   1.35   6.70   0.00   1.50   1.57 
 42- 56 0.189 0.307 0.436 0.118 0.307   0.00   1.41   7.00   0.00   1.50   0.94 
 56- 70 0.189 0.307 0.436 0.118 0.307   0.00   1.41   7.00   0.00   1.50   0.94 
                                                                                
TOT- 70  12.9  22.9  31.0  10.0  19.1  <--cm   -  kg/ha-->   19.5   13.8 173432 
SOIL ALBEDO    : 0.12      EVAPORATION LIMIT :10.00         MIN. FACTOR  : 1.00 
RUNOFF CURVE # : 0.75      DRAINAGE RATE     : 0.25         FERT. FACTOR : 1.00 
                                                                                
 Soybean    CULTIVAR :UY0141-GM 4 URUGUAY       ECOTYPE :INDETE                 
 CSDVAR :13.39  PPSEN  : 0.29  EMG-FLW:20.80  FLW-FSD:18.00  FSD-PHM : 36.00    
 WTPSD  :0.200  SDPDVR : 1.70  SDFDUR :26.00  PODDUR :10.00  XFRUIT  :  1.00    
 THRESH : 77.0  SDPRO  :0.405  SDLIP   : 0.205                                  


   PLANT COMPONENT  HARVEST     LOST*   TOTAL  BALANCE
   ---------------  -------- kg[N]/ha -------  -------
   Leaf N              0.51     9.84    10.35
   Stem N              2.57     1.67     4.24
   Shell N            11.31     3.87    15.18
   Seed N            152.18     0.00   152.18
   Root N              3.04     2.59     5.63
   Nodule N            1.91     2.74     4.65
   Total N           171.53    20.70   192.23
   N leakage                             7.08
   TOTAL N                                      199.31


   N INPUTS TO SYSTEM                kg[N]/ha
   ------------------                --------
   Seed N At Planting                    0.68
   N2 Fixed                            114.74
   N Uptake from Soil                   83.89
   TOTAL N                                      199.31

   * Lost due to senescence, freeze, pest or disease damage.

*******************************************************************************

*DSSAT Cropping System Model Ver. 4.6.1.000 -release      DEC 14, 2016; 12:37:38
                                                                                
*RUN   3        : UYSB                      CRGRO046 UYSB1074    1              
 MODEL          : CRGRO046 - Soybean                                            
 EXPERIMENT     : UYSB1074 SN late to create DSS                                
 DATA PATH      :                                                               
 TREATMENT  1   : UYSB                      CRGRO046                            
                                                                                
                                                                                
 CROP           : Soybean          CULTIVAR : GM 4 URUGUAY     ECOTYPE :INDETE  
 STARTING DATE  : DEC 11 1992                                                   
 PLANTING DATE  : DEC 14 1992        PLANTS/m2 :  7.0     ROW SPACING :  15.cm  
 WEATHER        : UYTA9201                                                      
 SOIL           : UYSN1J6O17     TEXTURE : CL    -        YOUNG_Brun_E_Ti_Fr    
 SOIL INITIAL C : DEPTH: 70cm EXTR. H2O: 99.9mm  NO3: 19.5kg/ha  NH4: 13.8kg/ha 
 WATER BALANCE  : AUTOMATIC IRRIGATION - REFILL PROFILE                         
 IRRIGATION     : AUTOMATIC - PLANTING -> MATURITY [ SOIL DEPTH: 0.30m 50.%]    
 NITROGEN BAL.  : SOIL-N, N-UPTAKE & DYNAMIC N-FIXATION SIMULATION              
 N-FERTILIZER   : NO N-FERTILIZER APPLIED                                       
 RESIDUE/MANURE : INITIAL :     0 kg/ha ;       0 kg/ha IN     0 APPLICATIONS   
 ENVIRONM. OPT. : DAYL=    0.00  SRAD=    0.00  TMAX=    0.00  TMIN=    0.00    
                  RAIN=    0.00  CO2 =    0.00  DEW =    0.00  WIND=    0.00    
 SIMULATION OPT : WATER   :Y  NITROGEN:Y  N-FIX:Y  PHOSPH :N  PESTS  :N         
                  PHOTO   :C  ET      :R  INFIL:S  HYDROL :R  SOM    :G         
                  CO2 357ppm  NSWIT   :1  EVAP :S  SOIL   :2  STEMP  :D         
 MANAGEMENT OPT : PLANTING:R  IRRIG   :A  FERT :N  RESIDUE:N  HARVEST:M         
                  WEATHER :M  TILLAGE :N                                        
                                                                                
*SUMMARY OF SOIL AND GENETIC INPUT PARAMETERS                                   
                                                                                
   SOIL LOWER UPPER   SAT  EXTR  INIT   ROOT   BULK     pH    NO3    NH4    ORG 
  DEPTH LIMIT LIMIT    SW    SW    SW   DIST   DENS                          C  
   cm   cm3/cm3    cm3/cm3    cm3/cm3         g/cm3         ugN/g  ugN/g     %  
------------------------------------------------------------------------------- 
  0-  5 0.167 0.343 0.449 0.176 0.219   1.00   1.19   6.40   5.00   1.50   3.25 
  5- 15 0.167 0.343 0.449 0.176 0.219   1.00   1.19   6.40   5.00   1.50   3.25 
 15- 18 0.167 0.343 0.449 0.176 0.219   1.00   1.19   6.40   5.00   1.50   3.25 
 18- 32 0.175 0.334 0.446 0.159 0.222   0.50   1.26   6.40   5.00   1.50   2.58 
 32- 42 0.213 0.342 0.449 0.129 0.342   0.00   1.35   6.70   0.00   1.50   1.57 
 42- 56 0.189 0.307 0.436 0.118 0.307   0.00   1.41   7.00   0.00   1.50   0.94 
 56- 70 0.189 0.307 0.436 0.118 0.307   0.00   1.41   7.00   0.00   1.50   0.94 
                                                                                
TOT- 70  12.9  22.9  31.0  10.0  19.1  <--cm   -  kg/ha-->   19.5   13.8 173432 
SOIL ALBEDO    : 0.12      EVAPORATION LIMIT :10.00         MIN. FACTOR  : 1.00 
RUNOFF CURVE # : 0.75      DRAINAGE RATE     : 0.25         FERT. FACTOR : 1.00 
                                                                                
 Soybean    CULTIVAR :UY0141-GM 4 URUGUAY       ECOTYPE :INDETE                 
 CSDVAR :13.39  PPSEN  : 0.29  EMG-FLW:20.80  FLW-FSD:18.00  FSD-PHM : 36.00    
 WTPSD  :0.200  SDPDVR : 1.70  SDFDUR :26.00  PODDUR :10.00  XFRUIT  :  1.00    
 THRESH : 77.0  SDPRO  :0.405  SDLIP   : 0.205                                  


   PLANT COMPONENT  HARVEST     LOST*   TOTAL  BALANCE
   ---------------  -------- kg[N]/ha -------  -------
   Leaf N              0.63    11.49    12.13
   Stem N              3.30     1.97     5.27
   Shell N            12.87     9.69    22.56
   Seed N            148.54     0.00   148.54
   Root N              3.61     2.74     6.35
   Nodule N            1.99     2.85     4.84
   Total N           170.96    28.74   199.70
   N leakage                             7.61
   TOTAL N                                      207.32


   N INPUTS TO SYSTEM                kg[N]/ha
   ------------------                --------
   Seed N At Planting                    0.68
   N2 Fixed                            141.41
   N Uptake from Soil                   65.23
   TOTAL N                                      207.32

   * Lost due to senescence, freeze, pest or disease damage.

*******************************************************************************

*DSSAT Cropping System Model Ver. 4.6.1.000 -release      DEC 14, 2016; 12:37:38
                                                                                
*RUN   4        : UYSB                      CRGRO046 UYSB1074    1              
 MODEL          : CRGRO046 - Soybean                                            
 EXPERIMENT     : UYSB1074 SN late to create DSS                                
 DATA PATH      :                                                               
 TREATMENT  1   : UYSB                      CRGRO046                            
                                                                                
                                                                                
 CROP           : Soybean          CULTIVAR : GM 4 URUGUAY     ECOTYPE :INDETE  
 STARTING DATE  : DEC 12 1993                                                   
 PLANTING DATE  : DEC 15 1993        PLANTS/m2 :  7.0     ROW SPACING :  15.cm  
 WEATHER        : UYTA9301                                                      
 SOIL           : UYSN1J6O17     TEXTURE : CL    -        YOUNG_Brun_E_Ti_Fr    
 SOIL INITIAL C : DEPTH: 70cm EXTR. H2O: 99.9mm  NO3: 19.5kg/ha  NH4: 13.8kg/ha 
 WATER BALANCE  : AUTOMATIC IRRIGATION - REFILL PROFILE                         
 IRRIGATION     : AUTOMATIC - PLANTING -> MATURITY [ SOIL DEPTH: 0.30m 50.%]    
 NITROGEN BAL.  : SOIL-N, N-UPTAKE & DYNAMIC N-FIXATION SIMULATION              
 N-FERTILIZER   : NO N-FERTILIZER APPLIED                                       
 RESIDUE/MANURE : INITIAL :     0 kg/ha ;       0 kg/ha IN     0 APPLICATIONS   
 ENVIRONM. OPT. : DAYL=    0.00  SRAD=    0.00  TMAX=    0.00  TMIN=    0.00    
                  RAIN=    0.00  CO2 =    0.00  DEW =    0.00  WIND=    0.00    
 SIMULATION OPT : WATER   :Y  NITROGEN:Y  N-FIX:Y  PHOSPH :N  PESTS  :N         
                  PHOTO   :C  ET      :R  INFIL:S  HYDROL :R  SOM    :G         
                  CO2 358ppm  NSWIT   :1  EVAP :S  SOIL   :2  STEMP  :D         
 MANAGEMENT OPT : PLANTING:R  IRRIG   :A  FERT :N  RESIDUE:N  HARVEST:M         
                  WEATHER :M  TILLAGE :N                                        
                                                                                
*SUMMARY OF SOIL AND GENETIC INPUT PARAMETERS                                   
                                                                                
   SOIL LOWER UPPER   SAT  EXTR  INIT   ROOT   BULK     pH    NO3    NH4    ORG 
  DEPTH LIMIT LIMIT    SW    SW    SW   DIST   DENS                          C  
   cm   cm3/cm3    cm3/cm3    cm3/cm3         g/cm3         ugN/g  ugN/g     %  
------------------------------------------------------------------------------- 
  0-  5 0.167 0.343 0.449 0.176 0.219   1.00   1.19   6.40   5.00   1.50   3.25 
  5- 15 0.167 0.343 0.449 0.176 0.219   1.00   1.19   6.40   5.00   1.50   3.25 
 15- 18 0.167 0.343 0.449 0.176 0.219   1.00   1.19   6.40   5.00   1.50   3.25 
 18- 32 0.175 0.334 0.446 0.159 0.222   0.50   1.26   6.40   5.00   1.50   2.58 
 32- 42 0.213 0.342 0.449 0.129 0.342   0.00   1.35   6.70   0.00   1.50   1.57 
 42- 56 0.189 0.307 0.436 0.118 0.307   0.00   1.41   7.00   0.00   1.50   0.94 
 56- 70 0.189 0.307 0.436 0.118 0.307   0.00   1.41   7.00   0.00   1.50   0.94 
                                                                                
TOT- 70  12.9  22.9  31.0  10.0  19.1  <--cm   -  kg/ha-->   19.5   13.8 173432 
SOIL ALBEDO    : 0.12      EVAPORATION LIMIT :10.00         MIN. FACTOR  : 1.00 
RUNOFF CURVE # : 0.75      DRAINAGE RATE     : 0.25         FERT. FACTOR : 1.00 
                                                                                
 Soybean    CULTIVAR :UY0141-GM 4 URUGUAY       ECOTYPE :INDETE                 
 CSDVAR :13.39  PPSEN  : 0.29  EMG-FLW:20.80  FLW-FSD:18.00  FSD-PHM : 36.00    
 WTPSD  :0.200  SDPDVR : 1.70  SDFDUR :26.00  PODDUR :10.00  XFRUIT  :  1.00    
 THRESH : 77.0  SDPRO  :0.405  SDLIP   : 0.205                                  


   PLANT COMPONENT  HARVEST     LOST*   TOTAL  BALANCE
   ---------------  -------- kg[N]/ha -------  -------
   Leaf N              0.61    11.47    12.09
   Stem N              3.23     1.93     5.16
   Shell N            12.87     6.69    19.56
   Seed N            157.21     0.00   157.21
   Root N              3.98     2.98     6.96
   Nodule N            1.99     2.74     4.73
   Total N           179.90    25.81   205.70
   N leakage                             7.63
   TOTAL N                                      213.33


   N INPUTS TO SYSTEM                kg[N]/ha
   ------------------                --------
   Seed N At Planting                    0.68
   N2 Fixed                            132.27
   N Uptake from Soil                   80.39
   TOTAL N                                      213.34

   * Lost due to senescence, freeze, pest or disease damage.

*******************************************************************************

*DSSAT Cropping System Model Ver. 4.6.1.000 -release      DEC 14, 2016; 12:37:38
                                                                                
*RUN   5        : UYSB                      CRGRO046 UYSB1074    1              
 MODEL          : CRGRO046 - Soybean                                            
 EXPERIMENT     : UYSB1074 SN late to create DSS                                
 DATA PATH      :                                                               
 TREATMENT  1   : UYSB                      CRGRO046                            
                                                                                
                                                                                
 CROP           : Soybean          CULTIVAR : GM 4 URUGUAY     ECOTYPE :INDETE  
 STARTING DATE  : DEC 12 1994                                                   
 PLANTING DATE  : DEC 15 1994        PLANTS/m2 :  7.0     ROW SPACING :  15.cm  
 WEATHER        : UYTA9401                                                      
 SOIL           : UYSN1J6O17     TEXTURE : CL    -        YOUNG_Brun_E_Ti_Fr    
 SOIL INITIAL C : DEPTH: 70cm EXTR. H2O: 99.9mm  NO3: 19.5kg/ha  NH4: 13.8kg/ha 
 WATER BALANCE  : AUTOMATIC IRRIGATION - REFILL PROFILE                         
 IRRIGATION     : AUTOMATIC - PLANTING -> MATURITY [ SOIL DEPTH: 0.30m 50.%]    
 NITROGEN BAL.  : SOIL-N, N-UPTAKE & DYNAMIC N-FIXATION SIMULATION              
 N-FERTILIZER   : NO N-FERTILIZER APPLIED                                       
 RESIDUE/MANURE : INITIAL :     0 kg/ha ;       0 kg/ha IN     0 APPLICATIONS   
 ENVIRONM. OPT. : DAYL=    0.00  SRAD=    0.00  TMAX=    0.00  TMIN=    0.00    
                  RAIN=    0.00  CO2 =    0.00  DEW =    0.00  WIND=    0.00    
 SIMULATION OPT : WATER   :Y  NITROGEN:Y  N-FIX:Y  PHOSPH :N  PESTS  :N         
                  PHOTO   :C  ET      :R  INFIL:S  HYDROL :R  SOM    :G         
                  CO2 360ppm  NSWIT   :1  EVAP :S  SOIL   :2  STEMP  :D         
 MANAGEMENT OPT : PLANTING:R  IRRIG   :A  FERT :N  RESIDUE:N  HARVEST:M         
                  WEATHER :M  TILLAGE :N                                        
                                                                                
*SUMMARY OF SOIL AND GENETIC INPUT PARAMETERS                                   
                                                                                
   SOIL LOWER UPPER   SAT  EXTR  INIT   ROOT   BULK     pH    NO3    NH4    ORG 
  DEPTH LIMIT LIMIT    SW    SW    SW   DIST   DENS                          C  
   cm   cm3/cm3    cm3/cm3    cm3/cm3         g/cm3         ugN/g  ugN/g     %  
------------------------------------------------------------------------------- 
  0-  5 0.167 0.343 0.449 0.176 0.219   1.00   1.19   6.40   5.00   1.50   3.25 
  5- 15 0.167 0.343 0.449 0.176 0.219   1.00   1.19   6.40   5.00   1.50   3.25 
 15- 18 0.167 0.343 0.449 0.176 0.219   1.00   1.19   6.40   5.00   1.50   3.25 
 18- 32 0.175 0.334 0.446 0.159 0.222   0.50   1.26   6.40   5.00   1.50   2.58 
 32- 42 0.213 0.342 0.449 0.129 0.342   0.00   1.35   6.70   0.00   1.50   1.57 
 42- 56 0.189 0.307 0.436 0.118 0.307   0.00   1.41   7.00   0.00   1.50   0.94 
 56- 70 0.189 0.307 0.436 0.118 0.307   0.00   1.41   7.00   0.00   1.50   0.94 
                                                                                
TOT- 70  12.9  22.9  31.0  10.0  19.1  <--cm   -  kg/ha-->   19.5   13.8 173432 
SOIL ALBEDO    : 0.12      EVAPORATION LIMIT :10.00         MIN. FACTOR  : 1.00 
RUNOFF CURVE # : 0.75      DRAINAGE RATE     : 0.25         FERT. FACTOR : 1.00 
                                                                                
 Soybean    CULTIVAR :UY0141-GM 4 URUGUAY       ECOTYPE :INDETE                 
 CSDVAR :13.39  PPSEN  : 0.29  EMG-FLW:20.80  FLW-FSD:18.00  FSD-PHM : 36.00    
 WTPSD  :0.200  SDPDVR : 1.70  SDFDUR :26.00  PODDUR :10.00  XFRUIT  :  1.00    
 THRESH : 77.0  SDPRO  :0.405  SDLIP   : 0.205                                  


   PLANT COMPONENT  HARVEST     LOST*   TOTAL  BALANCE
   ---------------  -------- kg[N]/ha -------  -------
   Leaf N              0.77    14.51    15.28
   Stem N              4.23     2.48     6.71
   Shell N            12.77     8.87    21.64
   Seed N            183.00     0.00   183.00
   Root N              5.03     3.76     8.78
   Nodule N            2.27     2.72     4.99
   Total N           208.06    32.33   240.39
   N leakage                             7.13
   TOTAL N                                      247.53


   N INPUTS TO SYSTEM                kg[N]/ha
   ------------------                --------
   Seed N At Planting                    0.68
   N2 Fixed                            156.85
   N Uptake from Soil                   90.01
   TOTAL N                                      247.54

   * Lost due to senescence, freeze, pest or disease damage.

*******************************************************************************

*DSSAT Cropping System Model Ver. 4.6.1.000 -release      DEC 14, 2016; 12:37:38
                                                                                
*RUN   6        : UYSB                      CRGRO046 UYSB1074    1              
 MODEL          : CRGRO046 - Soybean                                            
 EXPERIMENT     : UYSB1074 SN late to create DSS                                
 DATA PATH      :                                                               
 TREATMENT  1   : UYSB                      CRGRO046                            
                                                                                
                                                                                
 CROP           : Soybean          CULTIVAR : GM 4 URUGUAY     ECOTYPE :INDETE  
 STARTING DATE  : DEC 12 1995                                                   
 PLANTING DATE  : DEC 15 1995        PLANTS/m2 :  7.0     ROW SPACING :  15.cm  
 WEATHER        : UYTA9501                                                      
 SOIL           : UYSN1J6O17     TEXTURE : CL    -        YOUNG_Brun_E_Ti_Fr    
 SOIL INITIAL C : DEPTH: 70cm EXTR. H2O: 99.9mm  NO3: 19.5kg/ha  NH4: 13.8kg/ha 
 WATER BALANCE  : AUTOMATIC IRRIGATION - REFILL PROFILE                         
 IRRIGATION     : AUTOMATIC - PLANTING -> MATURITY [ SOIL DEPTH: 0.30m 50.%]    
 NITROGEN BAL.  : SOIL-N, N-UPTAKE & DYNAMIC N-FIXATION SIMULATION              
 N-FERTILIZER   : NO N-FERTILIZER APPLIED                                       
 RESIDUE/MANURE : INITIAL :     0 kg/ha ;       0 kg/ha IN     0 APPLICATIONS   
 ENVIRONM. OPT. : DAYL=    0.00  SRAD=    0.00  TMAX=    0.00  TMIN=    0.00    
                  RAIN=    0.00  CO2 =    0.00  DEW =    0.00  WIND=    0.00    
 SIMULATION OPT : WATER   :Y  NITROGEN:Y  N-FIX:Y  PHOSPH :N  PESTS  :N         
                  PHOTO   :C  ET      :R  INFIL:S  HYDROL :R  SOM    :G         
                  CO2 362ppm  NSWIT   :1  EVAP :S  SOIL   :2  STEMP  :D         
 MANAGEMENT OPT : PLANTING:R  IRRIG   :A  FERT :N  RESIDUE:N  HARVEST:M         
                  WEATHER :M  TILLAGE :N                                        
                                                                                
*SUMMARY OF SOIL AND GENETIC INPUT PARAMETERS                                   
                                                                                
   SOIL LOWER UPPER   SAT  EXTR  INIT   ROOT   BULK     pH    NO3    NH4    ORG 
  DEPTH LIMIT LIMIT    SW    SW    SW   DIST   DENS                          C  
   cm   cm3/cm3    cm3/cm3    cm3/cm3         g/cm3         ugN/g  ugN/g     %  
------------------------------------------------------------------------------- 
  0-  5 0.167 0.343 0.449 0.176 0.219   1.00   1.19   6.40   5.00   1.50   3.25 
  5- 15 0.167 0.343 0.449 0.176 0.219   1.00   1.19   6.40   5.00   1.50   3.25 
 15- 18 0.167 0.343 0.449 0.176 0.219   1.00   1.19   6.40   5.00   1.50   3.25 
 18- 32 0.175 0.334 0.446 0.159 0.222   0.50   1.26   6.40   5.00   1.50   2.58 
 32- 42 0.213 0.342 0.449 0.129 0.342   0.00   1.35   6.70   0.00   1.50   1.57 
 42- 56 0.189 0.307 0.436 0.118 0.307   0.00   1.41   7.00   0.00   1.50   0.94 
 56- 70 0.189 0.307 0.436 0.118 0.307   0.00   1.41   7.00   0.00   1.50   0.94 
                                                                                
TOT- 70  12.9  22.9  31.0  10.0  19.1  <--cm   -  kg/ha-->   19.5   13.8 173432 
SOIL ALBEDO    : 0.12      EVAPORATION LIMIT :10.00         MIN. FACTOR  : 1.00 
RUNOFF CURVE # : 0.75      DRAINAGE RATE     : 0.25         FERT. FACTOR : 1.00 
                                                                                
 Soybean    CULTIVAR :UY0141-GM 4 URUGUAY       ECOTYPE :INDETE                 
 CSDVAR :13.39  PPSEN  : 0.29  EMG-FLW:20.80  FLW-FSD:18.00  FSD-PHM : 36.00    
 WTPSD  :0.200  SDPDVR : 1.70  SDFDUR :26.00  PODDUR :10.00  XFRUIT  :  1.00    
 THRESH : 77.0  SDPRO  :0.405  SDLIP   : 0.205                                  


   PLANT COMPONENT  HARVEST     LOST*   TOTAL  BALANCE
   ---------------  -------- kg[N]/ha -------  -------
   Leaf N              0.72    13.12    13.84
   Stem N              3.85     2.24     6.09
   Shell N            13.39     8.35    21.73
   Seed N            172.65     0.00   172.65
   Root N              4.22     3.33     7.56
   Nodule N            2.01     2.98     4.99
   Total N           196.84    30.02   226.85
   N leakage                             8.56
   TOTAL N                                      235.41


   N INPUTS TO SYSTEM                kg[N]/ha
   ------------------                --------
   Seed N At Planting                    0.68
   N2 Fixed                            155.23
   N Uptake from Soil                   79.51
   TOTAL N                                      235.42

   * Lost due to senescence, freeze, pest or disease damage.

*******************************************************************************

*DSSAT Cropping System Model Ver. 4.6.1.000 -release      DEC 14, 2016; 12:37:38
                                                                                
*RUN   7        : UYSB                      CRGRO046 UYSB1074    1              
 MODEL          : CRGRO046 - Soybean                                            
 EXPERIMENT     : UYSB1074 SN late to create DSS                                
 DATA PATH      :                                                               
 TREATMENT  1   : UYSB                      CRGRO046                            
                                                                                
                                                                                
 CROP           : Soybean          CULTIVAR : GM 4 URUGUAY     ECOTYPE :INDETE  
 STARTING DATE  : DEC 11 1996                                                   
 PLANTING DATE  : DEC 14 1996        PLANTS/m2 :  7.0     ROW SPACING :  15.cm  
 WEATHER        : UYTA9601                                                      
 SOIL           : UYSN1J6O17     TEXTURE : CL    -        YOUNG_Brun_E_Ti_Fr    
 SOIL INITIAL C : DEPTH: 70cm EXTR. H2O: 99.9mm  NO3: 19.5kg/ha  NH4: 13.8kg/ha 
 WATER BALANCE  : AUTOMATIC IRRIGATION - REFILL PROFILE                         
 IRRIGATION     : AUTOMATIC - PLANTING -> MATURITY [ SOIL DEPTH: 0.30m 50.%]    
 NITROGEN BAL.  : SOIL-N, N-UPTAKE & DYNAMIC N-FIXATION SIMULATION              
 N-FERTILIZER   : NO N-FERTILIZER APPLIED                                       
 RESIDUE/MANURE : INITIAL :     0 kg/ha ;       0 kg/ha IN     0 APPLICATIONS   
 ENVIRONM. OPT. : DAYL=    0.00  SRAD=    0.00  TMAX=    0.00  TMIN=    0.00    
                  RAIN=    0.00  CO2 =    0.00  DEW =    0.00  WIND=    0.00    
 SIMULATION OPT : WATER   :Y  NITROGEN:Y  N-FIX:Y  PHOSPH :N  PESTS  :N         
                  PHOTO   :C  ET      :R  INFIL:S  HYDROL :R  SOM    :G         
                  CO2 363ppm  NSWIT   :1  EVAP :S  SOIL   :2  STEMP  :D         
 MANAGEMENT OPT : PLANTING:R  IRRIG   :A  FERT :N  RESIDUE:N  HARVEST:M         
                  WEATHER :M  TILLAGE :N                                        
                                                                                
*SUMMARY OF SOIL AND GENETIC INPUT PARAMETERS                                   
                                                                                
   SOIL LOWER UPPER   SAT  EXTR  INIT   ROOT   BULK     pH    NO3    NH4    ORG 
  DEPTH LIMIT LIMIT    SW    SW    SW   DIST   DENS                          C  
   cm   cm3/cm3    cm3/cm3    cm3/cm3         g/cm3         ugN/g  ugN/g     %  
------------------------------------------------------------------------------- 
  0-  5 0.167 0.343 0.449 0.176 0.219   1.00   1.19   6.40   5.00   1.50   3.25 
  5- 15 0.167 0.343 0.449 0.176 0.219   1.00   1.19   6.40   5.00   1.50   3.25 
 15- 18 0.167 0.343 0.449 0.176 0.219   1.00   1.19   6.40   5.00   1.50   3.25 
 18- 32 0.175 0.334 0.446 0.159 0.222   0.50   1.26   6.40   5.00   1.50   2.58 
 32- 42 0.213 0.342 0.449 0.129 0.342   0.00   1.35   6.70   0.00   1.50   1.57 
 42- 56 0.189 0.307 0.436 0.118 0.307   0.00   1.41   7.00   0.00   1.50   0.94 
 56- 70 0.189 0.307 0.436 0.118 0.307   0.00   1.41   7.00   0.00   1.50   0.94 
                                                                                
TOT- 70  12.9  22.9  31.0  10.0  19.1  <--cm   -  kg/ha-->   19.5   13.8 173432 
SOIL ALBEDO    : 0.12      EVAPORATION LIMIT :10.00         MIN. FACTOR  : 1.00 
RUNOFF CURVE # : 0.75      DRAINAGE RATE     : 0.25         FERT. FACTOR : 1.00 
                                                                                
 Soybean    CULTIVAR :UY0141-GM 4 URUGUAY       ECOTYPE :INDETE                 
 CSDVAR :13.39  PPSEN  : 0.29  EMG-FLW:20.80  FLW-FSD:18.00  FSD-PHM : 36.00    
 WTPSD  :0.200  SDPDVR : 1.70  SDFDUR :26.00  PODDUR :10.00  XFRUIT  :  1.00    
 THRESH : 77.0  SDPRO  :0.405  SDLIP   : 0.205                                  


   PLANT COMPONENT  HARVEST     LOST*   TOTAL  BALANCE
   ---------------  -------- kg[N]/ha -------  -------
   Leaf N              0.70    12.99    13.68
   Stem N              3.59     2.21     5.80
   Shell N            11.67     9.88    21.55
   Seed N            169.60     0.00   169.60
   Root N              4.23     3.21     7.43
   Nodule N            2.38     2.33     4.70
   Total N           192.15    30.61   222.76
   N leakage                             7.92
   TOTAL N                                      230.68


   N INPUTS TO SYSTEM                kg[N]/ha
   ------------------                --------
   Seed N At Planting                    0.68
   N2 Fixed                            144.05
   N Uptake from Soil                   85.96
   TOTAL N                                      230.68

   * Lost due to senescence, freeze, pest or disease damage.

*******************************************************************************

*DSSAT Cropping System Model Ver. 4.6.1.000 -release      DEC 14, 2016; 12:37:38
                                                                                
*RUN   8        : UYSB                      CRGRO046 UYSB1074    1              
 MODEL          : CRGRO046 - Soybean                                            
 EXPERIMENT     : UYSB1074 SN late to create DSS                                
 DATA PATH      :                                                               
 TREATMENT  1   : UYSB                      CRGRO046                            
                                                                                
                                                                                
 CROP           : Soybean          CULTIVAR : GM 4 URUGUAY     ECOTYPE :INDETE  
 STARTING DATE  : DEC 12 1997                                                   
 PLANTING DATE  : DEC 15 1997        PLANTS/m2 :  7.0     ROW SPACING :  15.cm  
 WEATHER        : UYTA9701                                                      
 SOIL           : UYSN1J6O17     TEXTURE : CL    -        YOUNG_Brun_E_Ti_Fr    
 SOIL INITIAL C : DEPTH: 70cm EXTR. H2O: 99.9mm  NO3: 19.5kg/ha  NH4: 13.8kg/ha 
 WATER BALANCE  : AUTOMATIC IRRIGATION - REFILL PROFILE                         
 IRRIGATION     : AUTOMATIC - PLANTING -> MATURITY [ SOIL DEPTH: 0.30m 50.%]    
 NITROGEN BAL.  : SOIL-N, N-UPTAKE & DYNAMIC N-FIXATION SIMULATION              
 N-FERTILIZER   : NO N-FERTILIZER APPLIED                                       
 RESIDUE/MANURE : INITIAL :     0 kg/ha ;       0 kg/ha IN     0 APPLICATIONS   
 ENVIRONM. OPT. : DAYL=    0.00  SRAD=    0.00  TMAX=    0.00  TMIN=    0.00    
                  RAIN=    0.00  CO2 =    0.00  DEW =    0.00  WIND=    0.00    
 SIMULATION OPT : WATER   :Y  NITROGEN:Y  N-FIX:Y  PHOSPH :N  PESTS  :N         
                  PHOTO   :C  ET      :R  INFIL:S  HYDROL :R  SOM    :G         
                  CO2 365ppm  NSWIT   :1  EVAP :S  SOIL   :2  STEMP  :D         
 MANAGEMENT OPT : PLANTING:R  IRRIG   :A  FERT :N  RESIDUE:N  HARVEST:M         
                  WEATHER :M  TILLAGE :N                                        
                                                                                
*SUMMARY OF SOIL AND GENETIC INPUT PARAMETERS                                   
                                                                                
   SOIL LOWER UPPER   SAT  EXTR  INIT   ROOT   BULK     pH    NO3    NH4    ORG 
  DEPTH LIMIT LIMIT    SW    SW    SW   DIST   DENS                          C  
   cm   cm3/cm3    cm3/cm3    cm3/cm3         g/cm3         ugN/g  ugN/g     %  
------------------------------------------------------------------------------- 
  0-  5 0.167 0.343 0.449 0.176 0.219   1.00   1.19   6.40   5.00   1.50   3.25 
  5- 15 0.167 0.343 0.449 0.176 0.219   1.00   1.19   6.40   5.00   1.50   3.25 
 15- 18 0.167 0.343 0.449 0.176 0.219   1.00   1.19   6.40   5.00   1.50   3.25 
 18- 32 0.175 0.334 0.446 0.159 0.222   0.50   1.26   6.40   5.00   1.50   2.58 
 32- 42 0.213 0.342 0.449 0.129 0.342   0.00   1.35   6.70   0.00   1.50   1.57 
 42- 56 0.189 0.307 0.436 0.118 0.307   0.00   1.41   7.00   0.00   1.50   0.94 
 56- 70 0.189 0.307 0.436 0.118 0.307   0.00   1.41   7.00   0.00   1.50   0.94 
                                                                                
TOT- 70  12.9  22.9  31.0  10.0  19.1  <--cm   -  kg/ha-->   19.5   13.8 173432 
SOIL ALBEDO    : 0.12      EVAPORATION LIMIT :10.00         MIN. FACTOR  : 1.00 
RUNOFF CURVE # : 0.75      DRAINAGE RATE     : 0.25         FERT. FACTOR : 1.00 
                                                                                
 Soybean    CULTIVAR :UY0141-GM 4 URUGUAY       ECOTYPE :INDETE                 
 CSDVAR :13.39  PPSEN  : 0.29  EMG-FLW:20.80  FLW-FSD:18.00  FSD-PHM : 36.00    
 WTPSD  :0.200  SDPDVR : 1.70  SDFDUR :26.00  PODDUR :10.00  XFRUIT  :  1.00    
 THRESH : 77.0  SDPRO  :0.405  SDLIP   : 0.205                                  


   PLANT COMPONENT  HARVEST     LOST*   TOTAL  BALANCE
   ---------------  -------- kg[N]/ha -------  -------
   Leaf N              0.55    10.17    10.72
   Stem N              2.96     1.76     4.72
   Shell N            10.38     5.74    16.12
   Seed N            125.48     0.00   125.48
   Root N              3.39     2.42     5.81
   Nodule N            1.98     2.39     4.37
   Total N           144.74    22.48   167.22
   N leakage                             6.57
   TOTAL N                                      173.79


   N INPUTS TO SYSTEM                kg[N]/ha
   ------------------                --------
   Seed N At Planting                    0.68
   N2 Fixed                            127.27
   N Uptake from Soil                   45.84
   TOTAL N                                      173.79

   * Lost due to senescence, freeze, pest or disease damage.

*******************************************************************************

*DSSAT Cropping System Model Ver. 4.6.1.000 -release      DEC 14, 2016; 12:37:38
                                                                                
*RUN   9        : UYSB                      CRGRO046 UYSB1074    1              
 MODEL          : CRGRO046 - Soybean                                            
 EXPERIMENT     : UYSB1074 SN late to create DSS                                
 DATA PATH      :                                                               
 TREATMENT  1   : UYSB                      CRGRO046                            
                                                                                
                                                                                
 CROP           : Soybean          CULTIVAR : GM 4 URUGUAY     ECOTYPE :INDETE  
 STARTING DATE  : DEC 12 1998                                                   
 PLANTING DATE  : DEC 15 1998        PLANTS/m2 :  7.0     ROW SPACING :  15.cm  
 WEATHER        : UYTA9801                                                      
 SOIL           : UYSN1J6O17     TEXTURE : CL    -        YOUNG_Brun_E_Ti_Fr    
 SOIL INITIAL C : DEPTH: 70cm EXTR. H2O: 99.9mm  NO3: 19.5kg/ha  NH4: 13.8kg/ha 
 WATER BALANCE  : AUTOMATIC IRRIGATION - REFILL PROFILE                         
 IRRIGATION     : AUTOMATIC - PLANTING -> MATURITY [ SOIL DEPTH: 0.30m 50.%]    
 NITROGEN BAL.  : SOIL-N, N-UPTAKE & DYNAMIC N-FIXATION SIMULATION              
 N-FERTILIZER   : NO N-FERTILIZER APPLIED                                       
 RESIDUE/MANURE : INITIAL :     0 kg/ha ;       0 kg/ha IN     0 APPLICATIONS   
 ENVIRONM. OPT. : DAYL=    0.00  SRAD=    0.00  TMAX=    0.00  TMIN=    0.00    
                  RAIN=    0.00  CO2 =    0.00  DEW =    0.00  WIND=    0.00    
 SIMULATION OPT : WATER   :Y  NITROGEN:Y  N-FIX:Y  PHOSPH :N  PESTS  :N         
                  PHOTO   :C  ET      :R  INFIL:S  HYDROL :R  SOM    :G         
                  CO2 368ppm  NSWIT   :1  EVAP :S  SOIL   :2  STEMP  :D         
 MANAGEMENT OPT : PLANTING:R  IRRIG   :A  FERT :N  RESIDUE:N  HARVEST:M         
                  WEATHER :M  TILLAGE :N                                        
                                                                                
*SUMMARY OF SOIL AND GENETIC INPUT PARAMETERS                                   
                                                                                
   SOIL LOWER UPPER   SAT  EXTR  INIT   ROOT   BULK     pH    NO3    NH4    ORG 
  DEPTH LIMIT LIMIT    SW    SW    SW   DIST   DENS                          C  
   cm   cm3/cm3    cm3/cm3    cm3/cm3         g/cm3         ugN/g  ugN/g     %  
------------------------------------------------------------------------------- 
  0-  5 0.167 0.343 0.449 0.176 0.219   1.00   1.19   6.40   5.00   1.50   3.25 
  5- 15 0.167 0.343 0.449 0.176 0.219   1.00   1.19   6.40   5.00   1.50   3.25 
 15- 18 0.167 0.343 0.449 0.176 0.219   1.00   1.19   6.40   5.00   1.50   3.25 
 18- 32 0.175 0.334 0.446 0.159 0.222   0.50   1.26   6.40   5.00   1.50   2.58 
 32- 42 0.213 0.342 0.449 0.129 0.342   0.00   1.35   6.70   0.00   1.50   1.57 
 42- 56 0.189 0.307 0.436 0.118 0.307   0.00   1.41   7.00   0.00   1.50   0.94 
 56- 70 0.189 0.307 0.436 0.118 0.307   0.00   1.41   7.00   0.00   1.50   0.94 
                                                                                
TOT- 70  12.9  22.9  31.0  10.0  19.1  <--cm   -  kg/ha-->   19.5   13.8 173432 
SOIL ALBEDO    : 0.12      EVAPORATION LIMIT :10.00         MIN. FACTOR  : 1.00 
RUNOFF CURVE # : 0.75      DRAINAGE RATE     : 0.25         FERT. FACTOR : 1.00 
                                                                                
 Soybean    CULTIVAR :UY0141-GM 4 URUGUAY       ECOTYPE :INDETE                 
 CSDVAR :13.39  PPSEN  : 0.29  EMG-FLW:20.80  FLW-FSD:18.00  FSD-PHM : 36.00    
 WTPSD  :0.200  SDPDVR : 1.70  SDFDUR :26.00  PODDUR :10.00  XFRUIT  :  1.00    
 THRESH : 77.0  SDPRO  :0.405  SDLIP   : 0.205                                  


   PLANT COMPONENT  HARVEST     LOST*   TOTAL  BALANCE
   ---------------  -------- kg[N]/ha -------  -------
   Leaf N              0.73    14.13    14.86
   Stem N              4.27     2.41     6.68
   Shell N            14.16     6.57    20.73
   Seed N            167.96     0.00   167.96
   Root N              4.60     3.62     8.22
   Nodule N            1.94     3.05     4.99
   Total N           193.65    29.79   223.44
   N leakage                             8.18
   TOTAL N                                      231.62


   N INPUTS TO SYSTEM                kg[N]/ha
   ------------------                --------
   Seed N At Planting                    0.68
   N2 Fixed                            143.06
   N Uptake from Soil                   87.89
   TOTAL N                                      231.63

   * Lost due to senescence, freeze, pest or disease damage.

*******************************************************************************

*DSSAT Cropping System Model Ver. 4.6.1.000 -release      DEC 14, 2016; 12:37:38
                                                                                
*RUN  10        : UYSB                      CRGRO046 UYSB1074    1              
 MODEL          : CRGRO046 - Soybean                                            
 EXPERIMENT     : UYSB1074 SN late to create DSS                                
 DATA PATH      :                                                               
 TREATMENT  1   : UYSB                      CRGRO046                            
                                                                                
                                                                                
 CROP           : Soybean          CULTIVAR : GM 4 URUGUAY     ECOTYPE :INDETE  
 STARTING DATE  : DEC 12 1999                                                   
 PLANTING DATE  : DEC 15 1999        PLANTS/m2 :  7.0     ROW SPACING :  15.cm  
 WEATHER        : UYTA9901                                                      
 SOIL           : UYSN1J6O17     TEXTURE : CL    -        YOUNG_Brun_E_Ti_Fr    
 SOIL INITIAL C : DEPTH: 70cm EXTR. H2O: 99.9mm  NO3: 19.5kg/ha  NH4: 13.8kg/ha 
 WATER BALANCE  : AUTOMATIC IRRIGATION - REFILL PROFILE                         
 IRRIGATION     : AUTOMATIC - PLANTING -> MATURITY [ SOIL DEPTH: 0.30m 50.%]    
 NITROGEN BAL.  : SOIL-N, N-UPTAKE & DYNAMIC N-FIXATION SIMULATION              
 N-FERTILIZER   : NO N-FERTILIZER APPLIED                                       
 RESIDUE/MANURE : INITIAL :     0 kg/ha ;       0 kg/ha IN     0 APPLICATIONS   
 ENVIRONM. OPT. : DAYL=    0.00  SRAD=    0.00  TMAX=    0.00  TMIN=    0.00    
                  RAIN=    0.00  CO2 =    0.00  DEW =    0.00  WIND=    0.00    
 SIMULATION OPT : WATER   :Y  NITROGEN:Y  N-FIX:Y  PHOSPH :N  PESTS  :N         
                  PHOTO   :C  ET      :R  INFIL:S  HYDROL :R  SOM    :G         
                  CO2 369ppm  NSWIT   :1  EVAP :S  SOIL   :2  STEMP  :D         
 MANAGEMENT OPT : PLANTING:R  IRRIG   :A  FERT :N  RESIDUE:N  HARVEST:M         
                  WEATHER :M  TILLAGE :N                                        
                                                                                
*SUMMARY OF SOIL AND GENETIC INPUT PARAMETERS                                   
                                                                                
   SOIL LOWER UPPER   SAT  EXTR  INIT   ROOT   BULK     pH    NO3    NH4    ORG 
  DEPTH LIMIT LIMIT    SW    SW    SW   DIST   DENS                          C  
   cm   cm3/cm3    cm3/cm3    cm3/cm3         g/cm3         ugN/g  ugN/g     %  
------------------------------------------------------------------------------- 
  0-  5 0.167 0.343 0.449 0.176 0.219   1.00   1.19   6.40   5.00   1.50   3.25 
  5- 15 0.167 0.343 0.449 0.176 0.219   1.00   1.19   6.40   5.00   1.50   3.25 
 15- 18 0.167 0.343 0.449 0.176 0.219   1.00   1.19   6.40   5.00   1.50   3.25 
 18- 32 0.175 0.334 0.446 0.159 0.222   0.50   1.26   6.40   5.00   1.50   2.58 
 32- 42 0.213 0.342 0.449 0.129 0.342   0.00   1.35   6.70   0.00   1.50   1.57 
 42- 56 0.189 0.307 0.436 0.118 0.307   0.00   1.41   7.00   0.00   1.50   0.94 
 56- 70 0.189 0.307 0.436 0.118 0.307   0.00   1.41   7.00   0.00   1.50   0.94 
                                                                                
TOT- 70  12.9  22.9  31.0  10.0  19.1  <--cm   -  kg/ha-->   19.5   13.8 173432 
SOIL ALBEDO    : 0.12      EVAPORATION LIMIT :10.00         MIN. FACTOR  : 1.00 
RUNOFF CURVE # : 0.75      DRAINAGE RATE     : 0.25         FERT. FACTOR : 1.00 
                                                                                
 Soybean    CULTIVAR :UY0141-GM 4 URUGUAY       ECOTYPE :INDETE                 
 CSDVAR :13.39  PPSEN  : 0.29  EMG-FLW:20.80  FLW-FSD:18.00  FSD-PHM : 36.00    
 WTPSD  :0.200  SDPDVR : 1.70  SDFDUR :26.00  PODDUR :10.00  XFRUIT  :  1.00    
 THRESH : 77.0  SDPRO  :0.405  SDLIP   : 0.205                                  


   PLANT COMPONENT  HARVEST     LOST*   TOTAL  BALANCE
   ---------------  -------- kg[N]/ha -------  -------
   Leaf N              0.69    13.25    13.94
   Stem N              3.88     2.23     6.11
   Shell N            14.17    10.94    25.12
   Seed N            184.17     0.00   184.17
   Root N              4.34     3.38     7.71
   Nodule N            2.48     3.17     5.65
   Total N           209.73    32.97   242.70
   N leakage                             6.07
   TOTAL N                                      248.76


   N INPUTS TO SYSTEM                kg[N]/ha
   ------------------                --------
   Seed N At Planting                    0.68
   N2 Fixed                            157.69
   N Uptake from Soil                   90.41
   TOTAL N                                      248.78

   * Lost due to senescence, freeze, pest or disease damage.

*******************************************************************************

*DSSAT Cropping System Model Ver. 4.6.1.000 -release      DEC 14, 2016; 12:37:38
                                                                                
*RUN  11        : UYSB                      CRGRO046 UYSB1074    1              
 MODEL          : CRGRO046 - Soybean                                            
 EXPERIMENT     : UYSB1074 SN late to create DSS                                
 DATA PATH      :                                                               
 TREATMENT  1   : UYSB                      CRGRO046                            
                                                                                
                                                                                
 CROP           : Soybean          CULTIVAR : GM 4 URUGUAY     ECOTYPE :INDETE  
 STARTING DATE  : DEC 11 2000                                                   
 PLANTING DATE  : DEC 14 2000        PLANTS/m2 :  7.0     ROW SPACING :  15.cm  
 WEATHER        : UYTA0001                                                      
 SOIL           : UYSN1J6O17     TEXTURE : CL    -        YOUNG_Brun_E_Ti_Fr    
 SOIL INITIAL C : DEPTH: 70cm EXTR. H2O: 99.9mm  NO3: 19.5kg/ha  NH4: 13.8kg/ha 
 WATER BALANCE  : AUTOMATIC IRRIGATION - REFILL PROFILE                         
 IRRIGATION     : AUTOMATIC - PLANTING -> MATURITY [ SOIL DEPTH: 0.30m 50.%]    
 NITROGEN BAL.  : SOIL-N, N-UPTAKE & DYNAMIC N-FIXATION SIMULATION              
 N-FERTILIZER   : NO N-FERTILIZER APPLIED                                       
 RESIDUE/MANURE : INITIAL :     0 kg/ha ;       0 kg/ha IN     0 APPLICATIONS   
 ENVIRONM. OPT. : DAYL=    0.00  SRAD=    0.00  TMAX=    0.00  TMIN=    0.00    
                  RAIN=    0.00  CO2 =    0.00  DEW =    0.00  WIND=    0.00    
 SIMULATION OPT : WATER   :Y  NITROGEN:Y  N-FIX:Y  PHOSPH :N  PESTS  :N         
                  PHOTO   :C  ET      :R  INFIL:S  HYDROL :R  SOM    :G         
                  CO2 370ppm  NSWIT   :1  EVAP :S  SOIL   :2  STEMP  :D         
 MANAGEMENT OPT : PLANTING:R  IRRIG   :A  FERT :N  RESIDUE:N  HARVEST:M         
                  WEATHER :M  TILLAGE :N                                        
                                                                                
*SUMMARY OF SOIL AND GENETIC INPUT PARAMETERS                                   
                                                                                
   SOIL LOWER UPPER   SAT  EXTR  INIT   ROOT   BULK     pH    NO3    NH4    ORG 
  DEPTH LIMIT LIMIT    SW    SW    SW   DIST   DENS                          C  
   cm   cm3/cm3    cm3/cm3    cm3/cm3         g/cm3         ugN/g  ugN/g     %  
------------------------------------------------------------------------------- 
  0-  5 0.167 0.343 0.449 0.176 0.219   1.00   1.19   6.40   5.00   1.50   3.25 
  5- 15 0.167 0.343 0.449 0.176 0.219   1.00   1.19   6.40   5.00   1.50   3.25 
 15- 18 0.167 0.343 0.449 0.176 0.219   1.00   1.19   6.40   5.00   1.50   3.25 
 18- 32 0.175 0.334 0.446 0.159 0.222   0.50   1.26   6.40   5.00   1.50   2.58 
 32- 42 0.213 0.342 0.449 0.129 0.342   0.00   1.35   6.70   0.00   1.50   1.57 
 42- 56 0.189 0.307 0.436 0.118 0.307   0.00   1.41   7.00   0.00   1.50   0.94 
 56- 70 0.189 0.307 0.436 0.118 0.307   0.00   1.41   7.00   0.00   1.50   0.94 
                                                                                
TOT- 70  12.9  22.9  31.0  10.0  19.1  <--cm   -  kg/ha-->   19.5   13.8 173432 
SOIL ALBEDO    : 0.12      EVAPORATION LIMIT :10.00         MIN. FACTOR  : 1.00 
RUNOFF CURVE # : 0.75      DRAINAGE RATE     : 0.25         FERT. FACTOR : 1.00 
                                                                                
 Soybean    CULTIVAR :UY0141-GM 4 URUGUAY       ECOTYPE :INDETE                 
 CSDVAR :13.39  PPSEN  : 0.29  EMG-FLW:20.80  FLW-FSD:18.00  FSD-PHM : 36.00    
 WTPSD  :0.200  SDPDVR : 1.70  SDFDUR :26.00  PODDUR :10.00  XFRUIT  :  1.00    
 THRESH : 77.0  SDPRO  :0.405  SDLIP   : 0.205                                  


   PLANT COMPONENT  HARVEST     LOST*   TOTAL  BALANCE
   ---------------  -------- kg[N]/ha -------  -------
   Leaf N              0.71    13.04    13.76
   Stem N              3.83     2.23     6.06
   Shell N            11.66     4.93    16.58
   Seed N            150.80     0.00   150.80
   Root N              4.28     3.35     7.63
   Nodule N            2.06     3.01     5.07
   Total N           173.34    26.57   199.91
   N leakage                             6.05
   TOTAL N                                      205.95


   N INPUTS TO SYSTEM                kg[N]/ha
   ------------------                --------
   Seed N At Planting                    0.68
   N2 Fixed                            132.80
   N Uptake from Soil                   72.48
   TOTAL N                                      205.96

   * Lost due to senescence, freeze, pest or disease damage.

*******************************************************************************

*DSSAT Cropping System Model Ver. 4.6.1.000 -release      DEC 14, 2016; 12:37:38
                                                                                
*RUN  12        : UYSB                      CRGRO046 UYSB1074    1              
 MODEL          : CRGRO046 - Soybean                                            
 EXPERIMENT     : UYSB1074 SN late to create DSS                                
 DATA PATH      :                                                               
 TREATMENT  1   : UYSB                      CRGRO046                            
                                                                                
                                                                                
 CROP           : Soybean          CULTIVAR : GM 4 URUGUAY     ECOTYPE :INDETE  
 STARTING DATE  : DEC 12 2001                                                   
 PLANTING DATE  : DEC 15 2001        PLANTS/m2 :  7.0     ROW SPACING :  15.cm  
 WEATHER        : UYTA0101                                                      
 SOIL           : UYSN1J6O17     TEXTURE : CL    -        YOUNG_Brun_E_Ti_Fr    
 SOIL INITIAL C : DEPTH: 70cm EXTR. H2O: 99.9mm  NO3: 19.5kg/ha  NH4: 13.8kg/ha 
 WATER BALANCE  : AUTOMATIC IRRIGATION - REFILL PROFILE                         
 IRRIGATION     : AUTOMATIC - PLANTING -> MATURITY [ SOIL DEPTH: 0.30m 50.%]    
 NITROGEN BAL.  : SOIL-N, N-UPTAKE & DYNAMIC N-FIXATION SIMULATION              
 N-FERTILIZER   : NO N-FERTILIZER APPLIED                                       
 RESIDUE/MANURE : INITIAL :     0 kg/ha ;       0 kg/ha IN     0 APPLICATIONS   
 ENVIRONM. OPT. : DAYL=    0.00  SRAD=    0.00  TMAX=    0.00  TMIN=    0.00    
                  RAIN=    0.00  CO2 =    0.00  DEW =    0.00  WIND=    0.00    
 SIMULATION OPT : WATER   :Y  NITROGEN:Y  N-FIX:Y  PHOSPH :N  PESTS  :N         
                  PHOTO   :C  ET      :R  INFIL:S  HYDROL :R  SOM    :G         
                  CO2 372ppm  NSWIT   :1  EVAP :S  SOIL   :2  STEMP  :D         
 MANAGEMENT OPT : PLANTING:R  IRRIG   :A  FERT :N  RESIDUE:N  HARVEST:M         
                  WEATHER :M  TILLAGE :N                                        
                                                                                
*SUMMARY OF SOIL AND GENETIC INPUT PARAMETERS                                   
                                                                                
   SOIL LOWER UPPER   SAT  EXTR  INIT   ROOT   BULK     pH    NO3    NH4    ORG 
  DEPTH LIMIT LIMIT    SW    SW    SW   DIST   DENS                          C  
   cm   cm3/cm3    cm3/cm3    cm3/cm3         g/cm3         ugN/g  ugN/g     %  
------------------------------------------------------------------------------- 
  0-  5 0.167 0.343 0.449 0.176 0.219   1.00   1.19   6.40   5.00   1.50   3.25 
  5- 15 0.167 0.343 0.449 0.176 0.219   1.00   1.19   6.40   5.00   1.50   3.25 
 15- 18 0.167 0.343 0.449 0.176 0.219   1.00   1.19   6.40   5.00   1.50   3.25 
 18- 32 0.175 0.334 0.446 0.159 0.222   0.50   1.26   6.40   5.00   1.50   2.58 
 32- 42 0.213 0.342 0.449 0.129 0.342   0.00   1.35   6.70   0.00   1.50   1.57 
 42- 56 0.189 0.307 0.436 0.118 0.307   0.00   1.41   7.00   0.00   1.50   0.94 
 56- 70 0.189 0.307 0.436 0.118 0.307   0.00   1.41   7.00   0.00   1.50   0.94 
                                                                                
TOT- 70  12.9  22.9  31.0  10.0  19.1  <--cm   -  kg/ha-->   19.5   13.8 173432 
SOIL ALBEDO    : 0.12      EVAPORATION LIMIT :10.00         MIN. FACTOR  : 1.00 
RUNOFF CURVE # : 0.75      DRAINAGE RATE     : 0.25         FERT. FACTOR : 1.00 
                                                                                
 Soybean    CULTIVAR :UY0141-GM 4 URUGUAY       ECOTYPE :INDETE                 
 CSDVAR :13.39  PPSEN  : 0.29  EMG-FLW:20.80  FLW-FSD:18.00  FSD-PHM : 36.00    
 WTPSD  :0.200  SDPDVR : 1.70  SDFDUR :26.00  PODDUR :10.00  XFRUIT  :  1.00    
 THRESH : 77.0  SDPRO  :0.405  SDLIP   : 0.205                                  


   PLANT COMPONENT  HARVEST     LOST*   TOTAL  BALANCE
   ---------------  -------- kg[N]/ha -------  -------
   Leaf N              0.77    14.17    14.93
   Stem N              4.02     2.45     6.47
   Shell N            15.57    11.04    26.61
   Seed N            152.24     0.00   152.24
   Root N              4.49     3.57     8.06
   Nodule N            2.19     3.27     5.46
   Total N           179.28    34.49   213.76
   N leakage                             9.57
   TOTAL N                                      223.33


   N INPUTS TO SYSTEM                kg[N]/ha
   ------------------                --------
   Seed N At Planting                    0.68
   N2 Fixed                            144.76
   N Uptake from Soil                   77.90
   TOTAL N                                      223.34

   * Lost due to senescence, freeze, pest or disease damage.

*******************************************************************************

*DSSAT Cropping System Model Ver. 4.6.1.000 -release      DEC 14, 2016; 12:37:38
                                                                                
*RUN  13        : UYSB                      CRGRO046 UYSB1074    1              
 MODEL          : CRGRO046 - Soybean                                            
 EXPERIMENT     : UYSB1074 SN late to create DSS                                
 DATA PATH      :                                                               
 TREATMENT  1   : UYSB                      CRGRO046                            
                                                                                
                                                                                
 CROP           : Soybean          CULTIVAR : GM 4 URUGUAY     ECOTYPE :INDETE  
 STARTING DATE  : DEC 12 2002                                                   
 PLANTING DATE  : DEC 15 2002        PLANTS/m2 :  7.0     ROW SPACING :  15.cm  
 WEATHER        : UYTA0201                                                      
 SOIL           : UYSN1J6O17     TEXTURE : CL    -        YOUNG_Brun_E_Ti_Fr    
 SOIL INITIAL C : DEPTH: 70cm EXTR. H2O: 99.9mm  NO3: 19.5kg/ha  NH4: 13.8kg/ha 
 WATER BALANCE  : AUTOMATIC IRRIGATION - REFILL PROFILE                         
 IRRIGATION     : AUTOMATIC - PLANTING -> MATURITY [ SOIL DEPTH: 0.30m 50.%]    
 NITROGEN BAL.  : SOIL-N, N-UPTAKE & DYNAMIC N-FIXATION SIMULATION              
 N-FERTILIZER   : NO N-FERTILIZER APPLIED                                       
 RESIDUE/MANURE : INITIAL :     0 kg/ha ;       0 kg/ha IN     0 APPLICATIONS   
 ENVIRONM. OPT. : DAYL=    0.00  SRAD=    0.00  TMAX=    0.00  TMIN=    0.00    
                  RAIN=    0.00  CO2 =    0.00  DEW =    0.00  WIND=    0.00    
 SIMULATION OPT : WATER   :Y  NITROGEN:Y  N-FIX:Y  PHOSPH :N  PESTS  :N         
                  PHOTO   :C  ET      :R  INFIL:S  HYDROL :R  SOM    :G         
                  CO2 374ppm  NSWIT   :1  EVAP :S  SOIL   :2  STEMP  :D         
 MANAGEMENT OPT : PLANTING:R  IRRIG   :A  FERT :N  RESIDUE:N  HARVEST:M         
                  WEATHER :M  TILLAGE :N                                        
                                                                                
*SUMMARY OF SOIL AND GENETIC INPUT PARAMETERS                                   
                                                                                
   SOIL LOWER UPPER   SAT  EXTR  INIT   ROOT   BULK     pH    NO3    NH4    ORG 
  DEPTH LIMIT LIMIT    SW    SW    SW   DIST   DENS                          C  
   cm   cm3/cm3    cm3/cm3    cm3/cm3         g/cm3         ugN/g  ugN/g     %  
------------------------------------------------------------------------------- 
  0-  5 0.167 0.343 0.449 0.176 0.219   1.00   1.19   6.40   5.00   1.50   3.25 
  5- 15 0.167 0.343 0.449 0.176 0.219   1.00   1.19   6.40   5.00   1.50   3.25 
 15- 18 0.167 0.343 0.449 0.176 0.219   1.00   1.19   6.40   5.00   1.50   3.25 
 18- 32 0.175 0.334 0.446 0.159 0.222   0.50   1.26   6.40   5.00   1.50   2.58 
 32- 42 0.213 0.342 0.449 0.129 0.342   0.00   1.35   6.70   0.00   1.50   1.57 
 42- 56 0.189 0.307 0.436 0.118 0.307   0.00   1.41   7.00   0.00   1.50   0.94 
 56- 70 0.189 0.307 0.436 0.118 0.307   0.00   1.41   7.00   0.00   1.50   0.94 
                                                                                
TOT- 70  12.9  22.9  31.0  10.0  19.1  <--cm   -  kg/ha-->   19.5   13.8 173432 
SOIL ALBEDO    : 0.12      EVAPORATION LIMIT :10.00         MIN. FACTOR  : 1.00 
RUNOFF CURVE # : 0.75      DRAINAGE RATE     : 0.25         FERT. FACTOR : 1.00 
                                                                                
 Soybean    CULTIVAR :UY0141-GM 4 URUGUAY       ECOTYPE :INDETE                 
 CSDVAR :13.39  PPSEN  : 0.29  EMG-FLW:20.80  FLW-FSD:18.00  FSD-PHM : 36.00    
 WTPSD  :0.200  SDPDVR : 1.70  SDFDUR :26.00  PODDUR :10.00  XFRUIT  :  1.00    
 THRESH : 77.0  SDPRO  :0.405  SDLIP   : 0.205                                  


   PLANT COMPONENT  HARVEST     LOST*   TOTAL  BALANCE
   ---------------  -------- kg[N]/ha -------  -------
   Leaf N              0.72    13.27    13.99
   Stem N              3.76     2.27     6.04
   Shell N            12.07    11.83    23.90
   Seed N            151.99     0.00   151.99
   Root N              4.28     3.10     7.39
   Nodule N            2.41     2.89     5.29
   Total N           175.23    33.37   208.60
   N leakage                             7.24
   TOTAL N                                      215.84


   N INPUTS TO SYSTEM                kg[N]/ha
   ------------------                --------
   Seed N At Planting                    0.68
   N2 Fixed                            141.92
   N Uptake from Soil                   73.25
   TOTAL N                                      215.85

   * Lost due to senescence, freeze, pest or disease damage.

*******************************************************************************

*DSSAT Cropping System Model Ver. 4.6.1.000 -release      DEC 14, 2016; 12:37:38
                                                                                
*RUN  14        : UYSB                      CRGRO046 UYSB1074    1              
 MODEL          : CRGRO046 - Soybean                                            
 EXPERIMENT     : UYSB1074 SN late to create DSS                                
 DATA PATH      :                                                               
 TREATMENT  1   : UYSB                      CRGRO046                            
                                                                                
                                                                                
 CROP           : Soybean          CULTIVAR : GM 4 URUGUAY     ECOTYPE :INDETE  
 STARTING DATE  : DEC 12 2003                                                   
 PLANTING DATE  : DEC 15 2003        PLANTS/m2 :  7.0     ROW SPACING :  15.cm  
 WEATHER        : UYTA0301                                                      
 SOIL           : UYSN1J6O17     TEXTURE : CL    -        YOUNG_Brun_E_Ti_Fr    
 SOIL INITIAL C : DEPTH: 70cm EXTR. H2O: 99.9mm  NO3: 19.5kg/ha  NH4: 13.8kg/ha 
 WATER BALANCE  : AUTOMATIC IRRIGATION - REFILL PROFILE                         
 IRRIGATION     : AUTOMATIC - PLANTING -> MATURITY [ SOIL DEPTH: 0.30m 50.%]    
 NITROGEN BAL.  : SOIL-N, N-UPTAKE & DYNAMIC N-FIXATION SIMULATION              
 N-FERTILIZER   : NO N-FERTILIZER APPLIED                                       
 RESIDUE/MANURE : INITIAL :     0 kg/ha ;       0 kg/ha IN     0 APPLICATIONS   
 ENVIRONM. OPT. : DAYL=    0.00  SRAD=    0.00  TMAX=    0.00  TMIN=    0.00    
                  RAIN=    0.00  CO2 =    0.00  DEW =    0.00  WIND=    0.00    
 SIMULATION OPT : WATER   :Y  NITROGEN:Y  N-FIX:Y  PHOSPH :N  PESTS  :N         
                  PHOTO   :C  ET      :R  INFIL:S  HYDROL :R  SOM    :G         
                  CO2 376ppm  NSWIT   :1  EVAP :S  SOIL   :2  STEMP  :D         
 MANAGEMENT OPT : PLANTING:R  IRRIG   :A  FERT :N  RESIDUE:N  HARVEST:M         
                  WEATHER :M  TILLAGE :N                                        
                                                                                
*SUMMARY OF SOIL AND GENETIC INPUT PARAMETERS                                   
                                                                                
   SOIL LOWER UPPER   SAT  EXTR  INIT   ROOT   BULK     pH    NO3    NH4    ORG 
  DEPTH LIMIT LIMIT    SW    SW    SW   DIST   DENS                          C  
   cm   cm3/cm3    cm3/cm3    cm3/cm3         g/cm3         ugN/g  ugN/g     %  
------------------------------------------------------------------------------- 
  0-  5 0.167 0.343 0.449 0.176 0.219   1.00   1.19   6.40   5.00   1.50   3.25 
  5- 15 0.167 0.343 0.449 0.176 0.219   1.00   1.19   6.40   5.00   1.50   3.25 
 15- 18 0.167 0.343 0.449 0.176 0.219   1.00   1.19   6.40   5.00   1.50   3.25 
 18- 32 0.175 0.334 0.446 0.159 0.222   0.50   1.26   6.40   5.00   1.50   2.58 
 32- 42 0.213 0.342 0.449 0.129 0.342   0.00   1.35   6.70   0.00   1.50   1.57 
 42- 56 0.189 0.307 0.436 0.118 0.307   0.00   1.41   7.00   0.00   1.50   0.94 
 56- 70 0.189 0.307 0.436 0.118 0.307   0.00   1.41   7.00   0.00   1.50   0.94 
                                                                                
TOT- 70  12.9  22.9  31.0  10.0  19.1  <--cm   -  kg/ha-->   19.5   13.8 173432 
SOIL ALBEDO    : 0.12      EVAPORATION LIMIT :10.00         MIN. FACTOR  : 1.00 
RUNOFF CURVE # : 0.75      DRAINAGE RATE     : 0.25         FERT. FACTOR : 1.00 
                                                                                
 Soybean    CULTIVAR :UY0141-GM 4 URUGUAY       ECOTYPE :INDETE                 
 CSDVAR :13.39  PPSEN  : 0.29  EMG-FLW:20.80  FLW-FSD:18.00  FSD-PHM : 36.00    
 WTPSD  :0.200  SDPDVR : 1.70  SDFDUR :26.00  PODDUR :10.00  XFRUIT  :  1.00    
 THRESH : 77.0  SDPRO  :0.405  SDLIP   : 0.205                                  


   PLANT COMPONENT  HARVEST     LOST*   TOTAL  BALANCE
   ---------------  -------- kg[N]/ha -------  -------
   Leaf N              0.75    13.63    14.38
   Stem N              3.90     2.33     6.24
   Shell N            15.34    19.19    34.53
   Seed N            177.12     0.00   177.12
   Root N              4.26     3.33     7.59
   Nodule N            2.39     3.20     5.59
   Total N           203.77    41.68   245.45
   N leakage                             9.83
   TOTAL N                                      255.28


   N INPUTS TO SYSTEM                kg[N]/ha
   ------------------                --------
   Seed N At Planting                    0.68
   N2 Fixed                            178.16
   N Uptake from Soil                   76.45
   TOTAL N                                      255.28

   * Lost due to senescence, freeze, pest or disease damage.

*******************************************************************************

*DSSAT Cropping System Model Ver. 4.6.1.000 -release      DEC 14, 2016; 12:37:38
                                                                                
*RUN  15        : UYSB                      CRGRO046 UYSB1074    1              
 MODEL          : CRGRO046 - Soybean                                            
 EXPERIMENT     : UYSB1074 SN late to create DSS                                
 DATA PATH      :                                                               
 TREATMENT  1   : UYSB                      CRGRO046                            
                                                                                
                                                                                
 CROP           : Soybean          CULTIVAR : GM 4 URUGUAY     ECOTYPE :INDETE  
 STARTING DATE  : DEC 11 2004                                                   
 PLANTING DATE  : DEC 14 2004        PLANTS/m2 :  7.0     ROW SPACING :  15.cm  
 WEATHER        : UYTA0401                                                      
 SOIL           : UYSN1J6O17     TEXTURE : CL    -        YOUNG_Brun_E_Ti_Fr    
 SOIL INITIAL C : DEPTH: 70cm EXTR. H2O: 99.9mm  NO3: 19.5kg/ha  NH4: 13.8kg/ha 
 WATER BALANCE  : AUTOMATIC IRRIGATION - REFILL PROFILE                         
 IRRIGATION     : AUTOMATIC - PLANTING -> MATURITY [ SOIL DEPTH: 0.30m 50.%]    
 NITROGEN BAL.  : SOIL-N, N-UPTAKE & DYNAMIC N-FIXATION SIMULATION              
 N-FERTILIZER   : NO N-FERTILIZER APPLIED                                       
 RESIDUE/MANURE : INITIAL :     0 kg/ha ;       0 kg/ha IN     0 APPLICATIONS   
 ENVIRONM. OPT. : DAYL=    0.00  SRAD=    0.00  TMAX=    0.00  TMIN=    0.00    
                  RAIN=    0.00  CO2 =    0.00  DEW =    0.00  WIND=    0.00    
 SIMULATION OPT : WATER   :Y  NITROGEN:Y  N-FIX:Y  PHOSPH :N  PESTS  :N         
                  PHOTO   :C  ET      :R  INFIL:S  HYDROL :R  SOM    :G         
                  CO2 378ppm  NSWIT   :1  EVAP :S  SOIL   :2  STEMP  :D         
 MANAGEMENT OPT : PLANTING:R  IRRIG   :A  FERT :N  RESIDUE:N  HARVEST:M         
                  WEATHER :M  TILLAGE :N                                        
                                                                                
*SUMMARY OF SOIL AND GENETIC INPUT PARAMETERS                                   
                                                                                
   SOIL LOWER UPPER   SAT  EXTR  INIT   ROOT   BULK     pH    NO3    NH4    ORG 
  DEPTH LIMIT LIMIT    SW    SW    SW   DIST   DENS                          C  
   cm   cm3/cm3    cm3/cm3    cm3/cm3         g/cm3         ugN/g  ugN/g     %  
------------------------------------------------------------------------------- 
  0-  5 0.167 0.343 0.449 0.176 0.219   1.00   1.19   6.40   5.00   1.50   3.25 
  5- 15 0.167 0.343 0.449 0.176 0.219   1.00   1.19   6.40   5.00   1.50   3.25 
 15- 18 0.167 0.343 0.449 0.176 0.219   1.00   1.19   6.40   5.00   1.50   3.25 
 18- 32 0.175 0.334 0.446 0.159 0.222   0.50   1.26   6.40   5.00   1.50   2.58 
 32- 42 0.213 0.342 0.449 0.129 0.342   0.00   1.35   6.70   0.00   1.50   1.57 
 42- 56 0.189 0.307 0.436 0.118 0.307   0.00   1.41   7.00   0.00   1.50   0.94 
 56- 70 0.189 0.307 0.436 0.118 0.307   0.00   1.41   7.00   0.00   1.50   0.94 
                                                                                
TOT- 70  12.9  22.9  31.0  10.0  19.1  <--cm   -  kg/ha-->   19.5   13.8 173432 
SOIL ALBEDO    : 0.12      EVAPORATION LIMIT :10.00         MIN. FACTOR  : 1.00 
RUNOFF CURVE # : 0.75      DRAINAGE RATE     : 0.25         FERT. FACTOR : 1.00 
                                                                                
 Soybean    CULTIVAR :UY0141-GM 4 URUGUAY       ECOTYPE :INDETE                 
 CSDVAR :13.39  PPSEN  : 0.29  EMG-FLW:20.80  FLW-FSD:18.00  FSD-PHM : 36.00    
 WTPSD  :0.200  SDPDVR : 1.70  SDFDUR :26.00  PODDUR :10.00  XFRUIT  :  1.00    
 THRESH : 77.0  SDPRO  :0.405  SDLIP   : 0.205                                  


   PLANT COMPONENT  HARVEST     LOST*   TOTAL  BALANCE
   ---------------  -------- kg[N]/ha -------  -------
   Leaf N              0.93    17.15    18.08
   Stem N              4.95     2.95     7.90
   Shell N            15.29     8.01    23.30
   Seed N            190.66     0.00   190.66
   Root N              5.42     4.05     9.46
   Nodule N            1.82     3.85     5.67
   Total N           219.06    36.01   255.08
   N leakage                            10.22
   TOTAL N                                      265.30


   N INPUTS TO SYSTEM                kg[N]/ha
   ------------------                --------
   Seed N At Planting                    0.68
   N2 Fixed                            177.39
   N Uptake from Soil                   87.23
   TOTAL N                                      265.31

   * Lost due to senescence, freeze, pest or disease damage.

*******************************************************************************

*DSSAT Cropping System Model Ver. 4.6.1.000 -release      DEC 14, 2016; 12:37:38
                                                                                
*RUN  16        : UYSB                      CRGRO046 UYSB1074    1              
 MODEL          : CRGRO046 - Soybean                                            
 EXPERIMENT     : UYSB1074 SN late to create DSS                                
 DATA PATH      :                                                               
 TREATMENT  1   : UYSB                      CRGRO046                            
                                                                                
                                                                                
 CROP           : Soybean          CULTIVAR : GM 4 URUGUAY     ECOTYPE :INDETE  
 STARTING DATE  : DEC 12 2005                                                   
 PLANTING DATE  : DEC 15 2005        PLANTS/m2 :  7.0     ROW SPACING :  15.cm  
 WEATHER        : UYTA0501                                                      
 SOIL           : UYSN1J6O17     TEXTURE : CL    -        YOUNG_Brun_E_Ti_Fr    
 SOIL INITIAL C : DEPTH: 70cm EXTR. H2O: 99.9mm  NO3: 19.5kg/ha  NH4: 13.8kg/ha 
 WATER BALANCE  : AUTOMATIC IRRIGATION - REFILL PROFILE                         
 IRRIGATION     : AUTOMATIC - PLANTING -> MATURITY [ SOIL DEPTH: 0.30m 50.%]    
 NITROGEN BAL.  : SOIL-N, N-UPTAKE & DYNAMIC N-FIXATION SIMULATION              
 N-FERTILIZER   : NO N-FERTILIZER APPLIED                                       
 RESIDUE/MANURE : INITIAL :     0 kg/ha ;       0 kg/ha IN     0 APPLICATIONS   
 ENVIRONM. OPT. : DAYL=    0.00  SRAD=    0.00  TMAX=    0.00  TMIN=    0.00    
                  RAIN=    0.00  CO2 =    0.00  DEW =    0.00  WIND=    0.00    
 SIMULATION OPT : WATER   :Y  NITROGEN:Y  N-FIX:Y  PHOSPH :N  PESTS  :N         
                  PHOTO   :C  ET      :R  INFIL:S  HYDROL :R  SOM    :G         
                  CO2 381ppm  NSWIT   :1  EVAP :S  SOIL   :2  STEMP  :D         
 MANAGEMENT OPT : PLANTING:R  IRRIG   :A  FERT :N  RESIDUE:N  HARVEST:M         
                  WEATHER :M  TILLAGE :N                                        
                                                                                
*SUMMARY OF SOIL AND GENETIC INPUT PARAMETERS                                   
                                                                                
   SOIL LOWER UPPER   SAT  EXTR  INIT   ROOT   BULK     pH    NO3    NH4    ORG 
  DEPTH LIMIT LIMIT    SW    SW    SW   DIST   DENS                          C  
   cm   cm3/cm3    cm3/cm3    cm3/cm3         g/cm3         ugN/g  ugN/g     %  
------------------------------------------------------------------------------- 
  0-  5 0.167 0.343 0.449 0.176 0.219   1.00   1.19   6.40   5.00   1.50   3.25 
  5- 15 0.167 0.343 0.449 0.176 0.219   1.00   1.19   6.40   5.00   1.50   3.25 
 15- 18 0.167 0.343 0.449 0.176 0.219   1.00   1.19   6.40   5.00   1.50   3.25 
 18- 32 0.175 0.334 0.446 0.159 0.222   0.50   1.26   6.40   5.00   1.50   2.58 
 32- 42 0.213 0.342 0.449 0.129 0.342   0.00   1.35   6.70   0.00   1.50   1.57 
 42- 56 0.189 0.307 0.436 0.118 0.307   0.00   1.41   7.00   0.00   1.50   0.94 
 56- 70 0.189 0.307 0.436 0.118 0.307   0.00   1.41   7.00   0.00   1.50   0.94 
                                                                                
TOT- 70  12.9  22.9  31.0  10.0  19.1  <--cm   -  kg/ha-->   19.5   13.8 173432 
[...]
 DATA PATH      :                                                               
 TREATMENT  1   : UYSB                      CRGRO046                            
                                                                                
                                                                                
 CROP           : Soybean          CULTIVAR : GM 4 URUGUAY     ECOTYPE :INDETE  
 STARTING DATE  : DEC 12 2007                                                   
 PLANTING DATE  : DEC 15 2007        PLANTS/m2 :  7.0     ROW SPACING :  15.cm  
 WEATHER        : UYTA0701                                                      
 SOIL           : UYSN1J6O17     TEXTURE : CL    -        YOUNG_Brun_E_Ti_Fr    
 SOIL INITIAL C : DEPTH: 70cm EXTR. H2O: 99.9mm  NO3: 19.5kg/ha  NH4: 13.8kg/ha 
 WATER BALANCE  : AUTOMATIC IRRIGATION - REFILL PROFILE                         
 IRRIGATION     : AUTOMATIC - PLANTING -> MATURITY [ SOIL DEPTH: 0.30m 50.%]    
 NITROGEN BAL.  : SOIL-N, N-UPTAKE & DYNAMIC N-FIXATION SIMULATION              
 N-FERTILIZER   : NO N-FERTILIZER APPLIED                                       
 RESIDUE/MANURE : INITIAL :     0 kg/ha ;       0 kg/ha IN     0 APPLICATIONS   
 ENVIRONM. OPT. : DAYL=    0.00  SRAD=    0.00  TMAX=    0.00  TMIN=    0.00    
                  RAIN=    0.00  CO2 =    0.00  DEW =    0.00  WIND=    0.00    
 SIMULATION OPT : WATER   :Y  NITROGEN:Y  N-FIX:Y  PHOSPH :N  PESTS  :N         
                  PHOTO   :C  ET      :R  INFIL:S  HYDROL :R  SOM    :G         
                  CO2 384ppm  NSWIT   :1  EVAP :S  SOIL   :2  STEMP  :D         
 MANAGEMENT OPT : PLANTING:R  IRRIG   :A  FERT :N  RESIDUE:N  HARVEST:M         
                  WEATHER :M  TILLAGE :N                                        
                                                                                
*SUMMARY OF SOIL AND GENETIC INPUT PARAMETERS                                   
                                                                                
   SOIL LOWER UPPER   SAT  EXTR  INIT   ROOT   BULK     pH    NO3    NH4    ORG 
  DEPTH LIMIT LIMIT    SW    SW    SW   DIST   DENS                          C  
   cm   cm3/cm3    cm3/cm3    cm3/cm3         g/cm3         ugN/g  ugN/g     %  
------------------------------------------------------------------------------- 
  0-  5 0.167 0.343 0.449 0.176 0.219   1.00   1.19   6.40   5.00   1.50   3.25 
  5- 15 0.167 0.343 0.449 0.176 0.219   1.00   1.19   6.40   5.00   1.50   3.25 
 15- 18 0.167 0.343 0.449 0.176 0.219   1.00   1.19   6.40   5.00   1.50   3.25 
 18- 32 0.175 0.334 0.446 0.159 0.222   0.50   1.26   6.40   5.00   1.50   2.58 
 32- 42 0.213 0.342 0.449 0.129 0.342   0.00   1.35   6.70   0.00   1.50   1.57 
 42- 56 0.189 0.307 0.436 0.118 0.307   0.00   1.41   7.00   0.00   1.50   0.94 
 56- 70 0.189 0.307 0.436 0.118 0.307   0.00   1.41   7.00   0.00   1.50   0.94 
                                                                                
TOT- 70  12.9  22.9  31.0  10.0  19.1  <--cm   -  kg/ha-->   19.5   13.8 173432 
SOIL ALBEDO    : 0.12      EVAPORATION LIMIT :10.00         MIN. FACTOR  : 1.00 
RUNOFF CURVE # : 0.75      DRAINAGE RATE     : 0.25         FERT. FACTOR : 1.00 
                                                                                
 Soybean    CULTIVAR :UY0141-GM 4 URUGUAY       ECOTYPE :INDETE                 
 CSDVAR :13.39  PPSEN  : 0.29  EMG-FLW:20.80  FLW-FSD:18.00  FSD-PHM : 36.00    
 WTPSD  :0.200  SDPDVR : 1.70  SDFDUR :26.00  PODDUR :10.00  XFRUIT  :  1.00    
 THRESH : 77.0  SDPRO  :0.405  SDLIP   : 0.205                                  


   PLANT COMPONENT  HARVEST     LOST*   TOTAL  BALANCE
   ---------------  -------- kg[N]/ha -------  -------
   Leaf N              0.71    13.80    14.52
   Stem N              3.79     2.33     6.12
   Shell N            15.18     8.16    23.34
   Seed N            196.55     0.00   196.55
   Root N              4.57     3.69     8.26
   Nodule N            2.70     2.90     5.60
   Total N           223.51    30.88   254.39
   N leakage                             6.61
   TOTAL N                                      261.00


   N INPUTS TO SYSTEM                kg[N]/ha
   ------------------                --------
   Seed N At Planting                    0.68
   N2 Fixed                            167.34
   N Uptake from Soil                   93.00
   TOTAL N                                      261.02

   * Lost due to senescence, freeze, pest or disease damage.

*******************************************************************************

*DSSAT Cropping System Model Ver. 4.6.1.000 -release      DEC 14, 2016; 12:37:38
                                                                                
*RUN  19        : UYSB                      CRGRO046 UYSB1074    1              
 MODEL          : CRGRO046 - Soybean                                            
 EXPERIMENT     : UYSB1074 SN late to create DSS                                
 DATA PATH      :                                                               
 TREATMENT  1   : UYSB                      CRGRO046                            
                                                                                
                                                                                
 CROP           : Soybean          CULTIVAR : GM 4 URUGUAY     ECOTYPE :INDETE  
 STARTING DATE  : DEC 11 2008                                                   
 PLANTING DATE  : DEC 14 2008        PLANTS/m2 :  7.0     ROW SPACING :  15.cm  
 WEATHER        : UYTA0801                                                      
 SOIL           : UYSN1J6O17     TEXTURE : CL    -        YOUNG_Brun_E_Ti_Fr    
 SOIL INITIAL C : DEPTH: 70cm EXTR. H2O: 99.9mm  NO3: 19.5kg/ha  NH4: 13.8kg/ha 
 WATER BALANCE  : AUTOMATIC IRRIGATION - REFILL PROFILE                         
 IRRIGATION     : AUTOMATIC - PLANTING -> MATURITY [ SOIL DEPTH: 0.30m 50.%]    
 NITROGEN BAL.  : SOIL-N, N-UPTAKE & DYNAMIC N-FIXATION SIMULATION              
 N-FERTILIZER   : NO N-FERTILIZER APPLIED                                       
 RESIDUE/MANURE : INITIAL :     0 kg/ha ;       0 kg/ha IN     0 APPLICATIONS   
 ENVIRONM. OPT. : DAYL=    0.00  SRAD=    0.00  TMAX=    0.00  TMIN=    0.00    
                  RAIN=    0.00  CO2 =    0.00  DEW =    0.00  WIND=    0.00    
 SIMULATION OPT : WATER   :Y  NITROGEN:Y  N-FIX:Y  PHOSPH :N  PESTS  :N         
                  PHOTO   :C  ET      :R  INFIL:S  HYDROL :R  SOM    :G         
                  CO2 386ppm  NSWIT   :1  EVAP :S  SOIL   :2  STEMP  :D         
 MANAGEMENT OPT : PLANTING:R  IRRIG   :A  FERT :N  RESIDUE:N  HARVEST:M         
                  WEATHER :M  TILLAGE :N                                        
                                                                                
*SUMMARY OF SOIL AND GENETIC INPUT PARAMETERS                                   
                                                                                
   SOIL LOWER UPPER   SAT  EXTR  INIT   ROOT   BULK     pH    NO3    NH4    ORG 
  DEPTH LIMIT LIMIT    SW    SW    SW   DIST   DENS                          C  
   cm   cm3/cm3    cm3/cm3    cm3/cm3         g/cm3         ugN/g  ugN/g     %  
------------------------------------------------------------------------------- 
  0-  5 0.167 0.343 0.449 0.176 0.219   1.00   1.19   6.40   5.00   1.50   3.25 
  5- 15 0.167 0.343 0.449 0.176 0.219   1.00   1.19   6.40   5.00   1.50   3.25 
 15- 18 0.167 0.343 0.449 0.176 0.219   1.00   1.19   6.40   5.00   1.50   3.25 
 18- 32 0.175 0.334 0.446 0.159 0.222   0.50   1.26   6.40   5.00   1.50   2.58 
 32- 42 0.213 0.342 0.449 0.129 0.342   0.00   1.35   6.70   0.00   1.50   1.57 
 42- 56 0.189 0.307 0.436 0.118 0.307   0.00   1.41   7.00   0.00   1.50   0.94 
 56- 70 0.189 0.307 0.436 0.118 0.307   0.00   1.41   7.00   0.00   1.50   0.94 
                                                                                
TOT- 70  12.9  22.9  31.0  10.0  19.1  <--cm   -  kg/ha-->   19.5   13.8 173432 
SOIL ALBEDO    : 0.12      EVAPORATION LIMIT :10.00         MIN. FACTOR  : 1.00 
RUNOFF CURVE # : 0.75      DRAINAGE RATE     : 0.25         FERT. FACTOR : 1.00 
                                                                                
 Soybean    CULTIVAR :UY0141-GM 4 URUGUAY       ECOTYPE :INDETE                 
 CSDVAR :13.39  PPSEN  : 0.29  EMG-FLW:20.80  FLW-FSD:18.00  FSD-PHM : 36.00    
 WTPSD  :0.200  SDPDVR : 1.70  SDFDUR :26.00  PODDUR :10.00  XFRUIT  :  1.00    
 THRESH : 77.0  SDPRO  :0.405  SDLIP   : 0.205                                  


   PLANT COMPONENT  HARVEST     LOST*   TOTAL  BALANCE
   ---------------  -------- kg[N]/ha -------  -------
   Leaf N              0.93    17.41    18.34
   Stem N              5.42     3.00     8.42
   Shell N            18.17    21.95    40.12
   Seed N            194.65     0.00   194.65
   Root N              5.43     3.88     9.31
   Nodule N            1.94     4.08     6.01
   Total N           226.54    50.31   276.85
   N leakage                            13.27
   TOTAL N                                      290.12


   N INPUTS TO SYSTEM                kg[N]/ha
   ------------------                --------
   Seed N At Planting                    0.68
   N2 Fixed                            198.50
   N Uptake from Soil                   90.95
   TOTAL N                                      290.13

   * Lost due to senescence, freeze, pest or disease damage.

*******************************************************************************

*DSSAT Cropping System Model Ver. 4.6.1.000 -release      DEC 14, 2016; 12:37:38
                                                                                
*RUN  20        : UYSB                      CRGRO046 UYSB1074    1              
 MODEL          : CRGRO046 - Soybean                                            
 EXPERIMENT     : UYSB1074 SN late to create DSS                                
 DATA PATH      :                                                               
 TREATMENT  1   : UYSB                      CRGRO046                            
                                                                                
                                                                                
 CROP           : Soybean          CULTIVAR : GM 4 URUGUAY     ECOTYPE :INDETE  
 STARTING DATE  : DEC 12 2009                                                   
 PLANTING DATE  : DEC 15 2009        PLANTS/m2 :  7.0     ROW SPACING :  15.cm  
 WEATHER        : UYTA0901                                                      
 SOIL           : UYSN1J6O17     TEXTURE : CL    -        YOUNG_Brun_E_Ti_Fr    
 SOIL INITIAL C : DEPTH: 70cm EXTR. H2O: 99.9mm  NO3: 19.5kg/ha  NH4: 13.8kg/ha 
 WATER BALANCE  : AUTOMATIC IRRIGATION - REFILL PROFILE                         
 IRRIGATION     : AUTOMATIC - PLANTING -> MATURITY [ SOIL DEPTH: 0.30m 50.%]    
 NITROGEN BAL.  : SOIL-N, N-UPTAKE & DYNAMIC N-FIXATION SIMULATION              
 N-FERTILIZER   : NO N-FERTILIZER APPLIED                                       
 RESIDUE/MANURE : INITIAL :     0 kg/ha ;       0 kg/ha IN     0 APPLICATIONS   
 ENVIRONM. OPT. : DAYL=    0.00  SRAD=    0.00  TMAX=    0.00  TMIN=    0.00    
                  RAIN=    0.00  CO2 =    0.00  DEW =    0.00  WIND=    0.00    
 SIMULATION OPT : WATER   :Y  NITROGEN:Y  N-FIX:Y  PHOSPH :N  PESTS  :N         
                  PHOTO   :C  ET      :R  INFIL:S  HYDROL :R  SOM    :G         
                  CO2 388ppm  NSWIT   :1  EVAP :S  SOIL   :2  STEMP  :D         
 MANAGEMENT OPT : PLANTING:R  IRRIG   :A  FERT :N  RESIDUE:N  HARVEST:M         
                  WEATHER :M  TILLAGE :N                                        
                                                                                
*SUMMARY OF SOIL AND GENETIC INPUT PARAMETERS                                   
                                                                                
   SOIL LOWER UPPER   SAT  EXTR  INIT   ROOT   BULK     pH    NO3    NH4    ORG 
  DEPTH LIMIT LIMIT    SW    SW    SW   DIST   DENS                          C  
   cm   cm3/cm3    cm3/cm3    cm3/cm3         g/cm3         ugN/g  ugN/g     %  
------------------------------------------------------------------------------- 
  0-  5 0.167 0.343 0.449 0.176 0.219   1.00   1.19   6.40   5.00   1.50   3.25 
  5- 15 0.167 0.343 0.449 0.176 0.219   1.00   1.19   6.40   5.00   1.50   3.25 
 15- 18 0.167 0.343 0.449 0.176 0.219   1.00   1.19   6.40   5.00   1.50   3.25 
 18- 32 0.175 0.334 0.446 0.159 0.222   0.50   1.26   6.40   5.00   1.50   2.58 
 32- 42 0.213 0.342 0.449 0.129 0.342   0.00   1.35   6.70   0.00   1.50   1.57 
 42- 56 0.189 0.307 0.436 0.118 0.307   0.00   1.41   7.00   0.00   1.50   0.94 
 56- 70 0.189 0.307 0.436 0.118 0.307   0.00   1.41   7.00   0.00   1.50   0.94 
                                                                                
TOT- 70  12.9  22.9  31.0  10.0  19.1  <--cm   -  kg/ha-->   19.5   13.8 173432 
SOIL ALBEDO    : 0.12      EVAPORATION LIMIT :10.00         MIN. FACTOR  : 1.00 
RUNOFF CURVE # : 0.75      DRAINAGE RATE     : 0.25         FERT. FACTOR : 1.00 
                                                                                
 Soybean    CULTIVAR :UY0141-GM 4 URUGUAY       ECOTYPE :INDETE                 
 CSDVAR :13.39  PPSEN  : 0.29  EMG-FLW:20.80  FLW-FSD:18.00  FSD-PHM : 36.00    
 WTPSD  :0.200  SDPDVR : 1.70  SDFDUR :26.00  PODDUR :10.00  XFRUIT  :  1.00    
 THRESH : 77.0  SDPRO  :0.405  SDLIP   : 0.205                                  


   PLANT COMPONENT  HARVEST     LOST*   TOTAL  BALANCE
   ---------------  -------- kg[N]/ha -------  -------
   Leaf N              0.63    11.66    12.29
   Stem N              3.10     1.97     5.07
   Shell N            11.61     6.00    17.61
   Seed N            168.85     0.00   168.85
   Root N              4.04     3.06     7.10
   Nodule N            2.63     2.49     5.12
   Total N           190.86    25.18   216.04
   N leakage                             6.26
   TOTAL N                                      222.30


   N INPUTS TO SYSTEM                kg[N]/ha
   ------------------                --------
   Seed N At Planting                    0.68
   N2 Fixed                            153.62
   N Uptake from Soil                   68.00
   TOTAL N                                      222.30

   * Lost due to senescence, freeze, pest or disease damage.

*******************************************************************************

*DSSAT Cropping System Model Ver. 4.6.1.000 -release      DEC 14, 2016; 12:37:38
                                                                                
*RUN  21        : UYSB                      CRGRO046 UYSB1074    1              
 MODEL          : CRGRO046 - Soybean                                            
 EXPERIMENT     : UYSB1074 SN late to create DSS                                
 DATA PATH      :                                                               
 TREATMENT  1   : UYSB                      CRGRO046                            
                                                                                
                                                                                
 CROP           : Soybean          CULTIVAR : GM 4 URUGUAY     ECOTYPE :INDETE  
 STARTING DATE  : DEC 12 2010                                                   
 PLANTING DATE  : DEC 15 2010        PLANTS/m2 :  7.0     ROW SPACING :  15.cm  
 WEATHER        : UYTA1001                                                      
 SOIL           : UYSN1J6O17     TEXTURE : CL    -        YOUNG_Brun_E_Ti_Fr    
 SOIL INITIAL C : DEPTH: 70cm EXTR. H2O: 99.9mm  NO3: 19.5kg/ha  NH4: 13.8kg/ha 
 WATER BALANCE  : AUTOMATIC IRRIGATION - REFILL PROFILE                         
 IRRIGATION     : AUTOMATIC - PLANTING -> MATURITY [ SOIL DEPTH: 0.30m 50.%]    
 NITROGEN BAL.  : SOIL-N, N-UPTAKE & DYNAMIC N-FIXATION SIMULATION              
 N-FERTILIZER   : NO N-FERTILIZER APPLIED                                       
 RESIDUE/MANURE : INITIAL :     0 kg/ha ;       0 kg/ha IN     0 APPLICATIONS   
 ENVIRONM. OPT. : DAYL=    0.00  SRAD=    0.00  TMAX=    0.00  TMIN=    0.00    
                  RAIN=    0.00  CO2 =    0.00  DEW =    0.00  WIND=    0.00    
 SIMULATION OPT : WATER   :Y  NITROGEN:Y  N-FIX:Y  PHOSPH :N  PESTS  :N         
                  PHOTO   :C  ET      :R  INFIL:S  HYDROL :R  SOM    :G         
                  CO2 391ppm  NSWIT   :1  EVAP :S  SOIL   :2  STEMP  :D         
 MANAGEMENT OPT : PLANTING:R  IRRIG   :A  FERT :N  RESIDUE:N  HARVEST:M         
                  WEATHER :M  TILLAGE :N                                        
                                                                                
*SUMMARY OF SOIL AND GENETIC INPUT PARAMETERS                                   
                                                                                
   SOIL LOWER UPPER   SAT  EXTR  INIT   ROOT   BULK     pH    NO3    NH4    ORG 
  DEPTH LIMIT LIMIT    SW    SW    SW   DIST   DENS                          C  
   cm   cm3/cm3    cm3/cm3    cm3/cm3         g/cm3         ugN/g  ugN/g     %  
------------------------------------------------------------------------------- 
  0-  5 0.167 0.343 0.449 0.176 0.219   1.00   1.19   6.40   5.00   1.50   3.25 
  5- 15 0.167 0.343 0.449 0.176 0.219   1.00   1.19   6.40   5.00   1.50   3.25 
 15- 18 0.167 0.343 0.449 0.176 0.219   1.00   1.19   6.40   5.00   1.50   3.25 
 18- 32 0.175 0.334 0.446 0.159 0.222   0.50   1.26   6.40   5.00   1.50   2.58 
 32- 42 0.213 0.342 0.449 0.129 0.342   0.00   1.35   6.70   0.00   1.50   1.57 
 42- 56 0.189 0.307 0.436 0.118 0.307   0.00   1.41   7.00   0.00   1.50   0.94 
 56- 70 0.189 0.307 0.436 0.118 0.307   0.00   1.41   7.00   0.00   1.50   0.94 
                                                                                
TOT- 70  12.9  22.9  31.0  10.0  19.1  <--cm   -  kg/ha-->   19.5   13.8 173432 
SOIL ALBEDO    : 0.12      EVAPORATION LIMIT :10.00         MIN. FACTOR  : 1.00 
RUNOFF CURVE # : 0.75      DRAINAGE RATE     : 0.25         FERT. FACTOR : 1.00 
                                                                                
 Soybean    CULTIVAR :UY0141-GM 4 URUGUAY       ECOTYPE :INDETE                 
 CSDVAR :13.39  PPSEN  : 0.29  EMG-FLW:20.80  FLW-FSD:18.00  FSD-PHM : 36.00    
 WTPSD  :0.200  SDPDVR : 1.70  SDFDUR :26.00  PODDUR :10.00  XFRUIT  :  1.00    
 THRESH : 77.0  SDPRO  :0.405  SDLIP   : 0.205                                  


   PLANT COMPONENT  HARVEST     LOST*   TOTAL  BALANCE
   ---------------  -------- kg[N]/ha -------  -------
   Leaf N              0.61    11.88    12.49
   Stem N              3.41     2.00     5.41
   Shell N            13.84     6.42    20.26
   Seed N            183.53     0.00   183.53
   Root N              4.09     3.17     7.26
   Nodule N            2.74     2.65     5.39
   Total N           208.22    26.12   234.34
   N leakage                             8.48
   TOTAL N                                      242.83


   N INPUTS TO SYSTEM                kg[N]/ha
   ------------------                --------
   Seed N At Planting                    0.68
   N2 Fixed                            163.25
   N Uptake from Soil                   78.92
   TOTAL N                                      242.85

   * Lost due to senescence, freeze, pest or disease damage.

*******************************************************************************
