*PLANT C OUTPUT FILE

*DSSAT Cropping System Model Ver. 4.0.2.000               Aug 29, 2016; 11:26:28

*RUN   1        : UYSB                    
 MODEL          : CRGRO040 - Soybean         
 EXPERIMENT     : UYSB0414 SB    late to create DSS                             
 TREATMENT  1   : UYSB                    

@YEAR DOY   DAS   DAP   TWAD    PHAD    CMAD    CGRD    GRAD    MRAD    CHAD   CL%D   CS%D   TGNN   TGAV    GN%D    GL%D    GC%D
 2000 241     3     0      0    0.00    0.00    0.00    0.00    0.00    0.00    0.0    0.0    9.6    6.4    0.00    0.00    0.00
 2000 242     4     1      0    0.00    0.00    0.00    0.00    0.00    0.00    0.0    0.0   14.6    9.4    0.00    0.00    0.00
 2000 243     5     2      0    0.00    0.00    0.00    0.00    0.00    0.00    0.0    0.0   18.1   11.9    0.00    0.00    0.00
 2000 244     6     3      0    0.00    0.00    0.00    0.00    0.00    0.00    0.0    0.0   13.2    9.6    0.00    0.00    0.00
 2000 245     7     4      0    0.00    0.00    0.00    0.00    0.00    0.00    0.0    0.0   11.5    6.2    0.00    0.00    0.00
 2000 246     8     5      0    0.00    0.00    0.00    0.00    0.00    0.00    0.0    0.0   12.9    7.1    0.00    0.00    0.00
 2000 247     9     6      0    0.00    0.00    0.00    0.00    0.00    0.00    0.0    0.0   13.9    8.2    0.00    0.00    0.00
 2000 248    10     7      0    0.00    0.00    0.00    0.00    0.00    0.00    0.0    0.0   17.3   11.4    0.00    0.00    0.00
 2000 249    11     8      0    0.00    0.00    0.00    0.00    0.00    0.00    0.0    0.0   16.9   10.2    0.00    0.00    0.00
 2000 250    12     9      0    0.00    0.00    0.00    0.00    0.00    0.00    0.0    0.0   18.3   12.0    0.00    0.00    0.00
 2000 251    13    10      0    0.00    0.00    0.00    0.00    0.00    0.00    0.0    0.0   23.0   17.1    0.00    0.00    0.00
 2000 252    14    11      0    0.00    0.00    0.00    0.00    0.00    0.00    0.0    0.0   24.5   19.7    0.00    0.00    0.00
 2000 253    15    12      7    0.00    0.00    0.00    0.00    0.00    0.00    4.0    7.9   20.7   17.8    0.00    0.00    0.00
 2000 254    16    13      8    0.09    0.00    0.06    0.02    0.01    0.00    3.9    7.8   22.4   19.6    0.00    0.00    0.00
 2000 255    17    14      8    0.07    0.00    0.05    0.02    0.00    0.00    3.9    7.7   20.0   16.3    0.00    0.00    0.00
 2000 256    18    15      8    0.05    0.00    0.03    0.01    0.00    0.00    3.9    7.7   13.4   10.9    0.00    0.00    0.00
 2000 257    19    16      9    0.02    0.00    0.01    0.00    0.00    0.00    3.9    7.7    8.9    7.8    0.00    0.00    0.00
 2000 258    20    17      9    0.03    0.00    0.02    0.01    0.00    0.00    3.8    7.7   10.2    9.2    0.00    0.00    0.00
 2000 259    21    18      9    0.05    0.00    0.03    0.01    0.00    0.00    3.8    7.7   13.7   11.7    0.00    0.00    0.00
 2000 260    22    19      9    0.09    0.00    0.06    0.02    0.00    0.00    3.8    7.6   15.6   13.5    0.00    0.00    0.00
 2000 261    23    20     10    0.11    0.00    0.07    0.02    0.00    0.00    3.8    7.6   17.5   13.4    0.00    0.00    0.00
 2000 262    24    21     10    0.07    0.00    0.04    0.01    0.01    0.00    3.8    7.5   17.4   16.2    0.00    0.00    0.00
 2000 263    25    22     11    0.16    0.00    0.10    0.03    0.01    0.00    3.7    7.5   20.1   17.9    0.00    0.00    0.00
 2000 264    26    23     12    0.12    0.00    0.08    0.02    0.01    0.00    3.7    7.5   20.0   17.1    0.00    0.00    0.00
 2000 265    27    24     13    0.10    0.00    0.06    0.02    0.01    0.00    3.7    7.4   16.7   14.9    0.00    0.00    0.00
 2000 266    28    25     14    0.18    0.00    0.12    0.04    0.01    0.00    3.7    7.4   17.2   13.4    0.00    0.00    0.00
 2000 267    29    26     15    0.17    0.00    0.11    0.03    0.01    0.00    3.7    7.4   19.1   14.4    0.00    0.00    0.00
 2000 268    30    27     16    0.11    0.00    0.07    0.02    0.00    0.00    3.7    7.5   11.5    9.0    0.00    0.00    0.00
 2000 269    31    28     16    0.11    0.00    0.07    0.02    0.00    0.00    3.7    7.5   11.5    7.5    0.00    0.00    0.00
 2000 270    32    29     17    0.14    0.00    0.09    0.03    0.00    0.00    3.7    7.5   13.9    8.9    0.00    0.00    0.00
 2000 271    33    30     19    0.26    0.00    0.17    0.05    0.01    0.00    3.6    7.5   21.2   14.9    0.00    0.00    0.00
 2000 272    34    31     21    0.32    0.00    0.19    0.07    0.02    0.00    3.6    7.4   23.4   17.9    0.00    0.00    0.00
 2000 273    35    32     23    0.35    0.00    0.21    0.08    0.02    0.00    3.6    7.4   24.2   18.8    0.00    0.00    0.00
 2000 274    36    33     25    0.39    0.00    0.24    0.08    0.03    0.00    3.6    7.4   23.5   19.4    0.00    0.00    0.00
 2000 275    37    34     28    0.43    0.00    0.27    0.09    0.03    0.00    3.6    7.3   23.1   19.6    0.00    0.00    0.00
 2000 276    38    35     29    0.19    0.00    0.12    0.04    0.02    0.00    3.6    7.3   18.2   17.2    0.00    0.00    0.00
 2000 277    39    36     31    0.30    0.00    0.19    0.06    0.02    0.00    3.6    7.3   19.4   16.7    0.00    0.00    0.00
 2000 278    40    37     33    0.43    0.00    0.26    0.10    0.02    0.00    3.6    7.2   17.3   15.1    0.00    0.00    0.00
 2000 279    41    38     36    0.47    0.00    0.30    0.11    0.02    0.00    3.6    7.3   16.7   12.7    0.00    0.00    0.00
 2000 280    42    39     39    0.48    0.00    0.31    0.11    0.02    0.00    3.6    7.3   16.5   11.7    0.00    0.00    0.00
 2000 281    43    40     43    0.62    0.00    0.39    0.13    0.03    0.00    3.6    7.3   19.3   14.0    0.00    0.00    0.00
 2000 282    44    41     48    0.76    0.00    0.48    0.16    0.04    0.00    3.6    7.4   20.6   16.1    0.00    0.00    0.00
 2000 283    45    42     49    0.31    0.00    0.19    0.07    0.02    0.00    3.6    7.3   17.2   15.1    0.00    0.00    0.00
 2000 284    46    43     54    0.70    0.00    0.44    0.15    0.03    0.00    3.6    7.3   16.8   13.5    0.00    0.00    0.00
 2000 285    47    44     59    0.85    0.00    0.54    0.17    0.04    0.00    3.6    7.4   19.2   14.5    0.00    0.00    0.00
 2000 286    48    45     66    1.18    0.00    0.73    0.23    0.09    0.00    3.6    7.4   25.5   21.6    0.00    0.00    0.00
 2000 287    49    46     73    1.08    0.00    0.68    0.23    0.06    0.00    3.6    7.4   20.3   16.7    0.00    0.00    0.00
 2000 288    50    47     76    0.52    0.00    0.31    0.11    0.04    0.00    3.6    7.3   18.8   16.7    0.00    0.00    0.00
 2000 289    51    48     79    0.59    0.00    0.36    0.13    0.04    0.00    3.6    7.3   18.8   16.1    0.00    0.00    0.00
 2000 290    52    49     85    0.98    0.00    0.61    0.20    0.07    0.00    3.5    7.3   21.9   18.8    0.00    0.00    0.00
 2000 291    53    50     91    1.05    0.01    0.66    0.21    0.08    0.00    3.5    7.3   21.2   19.2    0.00    0.00    0.00
 2000 292    54    51     96    0.90    0.01    0.55    0.18    0.08    0.00    3.5    7.2   22.5   19.9    0.00    0.00    0.00
 2000 293    55    52    104    1.27    0.01    0.79    0.26    0.08    0.00    3.5    7.2   19.2   18.1    0.00    0.00    0.00
 2000 294    56    53    110    1.11    0.01    0.67    0.22    0.10    0.00    3.5    7.2   24.9   21.0    0.00    0.00    0.00
 2000 295    57    54    125    2.41    0.01    1.50    0.48    0.18    0.00    3.4    7.2   25.7   21.3    0.00    0.00    0.00
 2000 296    58    55    132    1.12    0.01    0.69    0.23    0.08    0.00    3.4    7.2   19.2   17.9    0.00    0.00    0.00
 2000 297    59    56    138    1.11    0.01    0.69    0.23    0.08    0.00    3.4    7.2   18.2   16.7    0.00    0.00    0.00
 2000 298    60    57    145    1.29    0.01    0.78    0.27    0.10    0.00    3.4    7.1   20.8   18.1    0.00    0.00    0.00
 2000 299    61    58    159    2.24    0.01    1.36    0.48    0.15    0.00    3.4    7.1   21.2   19.3    0.00    0.00    0.00
 2000 300    62    59    173    2.51    0.01    1.51    0.52    0.20    0.00    3.4    7.1   23.0   21.0    0.00    0.00    0.00
 2000 301    63    60    200    4.48    0.01    2.75    0.94    0.26    0.00    3.5    7.2   23.0   18.6    0.00    0.00    0.00
 2000 302    64    61    224    3.87    0.01    2.41    0.82    0.16    0.00    3.5    7.2   18.5   14.6    0.00    0.00    0.00
 2000 303    65    62    246    3.60    0.01    2.26    0.77    0.13    0.00    3.5    7.3   16.4   12.6    0.00    0.00    0.00
 2000 304    66    63    283    6.08    0.01    3.73    1.28    0.35    0.00    3.6    7.3   24.5   18.2    0.00    0.00    0.00
 2000 305    67    64    324    6.84    0.02    4.18    1.44    0.43    0.00    3.6    7.3   24.5   19.5    0.00    0.00    0.00
 2000 306    68    65    343    3.42    0.02    2.05    0.71    0.29    0.00    3.6    7.2   23.2   19.6    0.00    0.00    0.00
 2000 307    69    66    382    6.47    0.02    3.98    1.38    0.38    0.00    3.6    7.2   21.2   18.1    0.00    0.00    0.00
 2000 308    70    67    432    8.17    0.02    5.07    1.76    0.41    0.00    3.6    7.3   21.4   16.4    0.00    0.00    0.00
 2000 309    71    68    473    6.73    0.02    4.16    1.45    0.36    0.00    3.6    7.3   20.4   16.3    0.00    0.00    0.00
 2000 310    72    69    533    9.88    0.03    6.09    2.12    0.53    0.01    3.6    7.3   22.0   17.2    0.00    0.00    0.00
 2000 311    73    70    600   11.17    0.04    6.79    2.38    0.70    0.05    3.7    7.5   23.2   19.0    0.00    0.00    0.00
 2000 312    74    71    644    7.49    0.04    4.48    1.59    0.57    0.05    3.7    7.6   22.4   19.3    0.00    0.00    0.00
 2000 313    75    72    706   10.54    0.05    6.24    2.22    0.83    0.11    3.8    7.9   23.9   21.0    0.00    0.00    0.00
 2000 314    76    73    743    6.43    0.05    3.79    1.36    0.52    0.09    3.8    8.1   20.1   18.6    0.00    0.00    0.00
 2000 315    77    74    829   14.40    0.05    8.56    3.08    0.88    0.25    4.0    8.6   22.0   18.6    0.00    0.00    0.00
 2000 316    78    75    923   16.13    0.07    9.40    3.43    1.11    0.33    4.2    9.2   24.0   20.0    0.00    0.00    0.00
 2000 317    79    76   1021   17.08    0.09    9.76    3.59    1.34    0.40    4.4    9.8   24.6   21.5    0.00    0.00    0.00
 2000 318    80    77   1104   14.32    0.07    8.26    3.12    0.84    0.38    4.6   10.2   20.3   17.0    0.00    0.00    0.00
 2000 319    81    78   1169   11.13    0.04    6.46    2.49    0.44    0.31    4.7   10.6   14.9   12.0    0.00    0.00    0.00
 2000 320    82    79   1230   10.33    0.04    5.96    2.32    0.39    0.30    4.8   10.9   15.0   10.8    0.00    0.00    0.00
 2000 321    83    80   1333   17.51    0.07   10.08    3.85    0.85    0.55    5.0   11.4   20.3   14.5    0.00    0.00    0.00
 2000 322    84    81   1461   22.03    0.11   12.53    4.78    1.35    0.75    5.2   12.0   23.5   17.5    0.00    0.00    0.00
 2000 323    85    82   1604   24.86    0.15   13.99    5.39    1.74    0.91    5.5   12.6   25.4   19.0    0.00    0.00    0.00
 2000 324    86    83   1745   25.40    0.20   13.96    5.44    2.14    0.99    5.7   13.1   27.2   21.2    0.00    0.00    0.00
 2000 325    87    84   1869   21.81    0.15   12.24    4.81    1.23    0.94    5.8   13.6   19.8   16.0    0.00    0.00    0.00
 2000 326    88    85   2018   26.50    0.19   14.58    5.86    1.77    1.18    6.0   14.1   24.0   17.7    0.00    0.00    0.00
 2000 327    89    86   2154   25.69    0.29   13.61    5.57    2.38    1.18    6.2   14.5   26.4   21.6    0.00    0.00    0.00
 2000 328    90    87   2295   27.51    0.36   14.31    5.77    3.20    1.32    6.3   14.9   30.1   24.4    0.00    0.00    0.00
 2000 329    91    88   2390   17.71    0.24    9.61    3.86    1.32    0.90    6.5   15.2   19.5   16.8    0.00    0.00    0.00
 2000 330    92    89   2534   25.81    0.23   13.97    5.73    1.62    1.39    6.6   15.6   21.4   16.1    0.00    0.00    0.00
 2000 331    93    90   2712   32.19    0.37   18.37    6.33    2.72    1.93    6.9   16.2   25.8   20.2    0.00    0.00    0.00
 2000 332    94    91   2810   19.48    0.44    9.28    4.44    2.29    0.95    6.9   16.3   25.8   21.1    0.00    0.00    0.00
 2000 333    95    92   2869   13.65    0.40    6.78    3.08    1.67    0.63    6.9   16.3   20.7   19.3    0.00    0.00    0.00
 2000 334    96    93   2964   18.23    0.32    9.93    3.96    1.51    1.05    7.0   16.6   19.8   16.7    0.00    0.00    0.00
 2000 335    97    94   3138   28.12    0.33   17.34    5.25    1.89    2.05    7.3   17.1   20.9   16.5    0.00    0.00    0.00
 2000 336    98    95   3307   27.28    0.36   16.42    4.72    1.95    2.11    7.5   17.7   21.8   16.4    0.00    0.00    0.00
 2000 337    99    96   3526   34.89    0.00   18.68    5.03    3.02    5.02    8.3   19.7   25.1   19.6    0.00    0.00    0.00
 2000 338   100    97   3696   28.35    0.00   15.45    4.13    2.93    3.39    8.7   20.9   25.6   20.1    0.00    0.00    0.00
 2000 339   101    98   3797   18.73    0.61   11.01    3.34    2.03    1.24    8.8   21.0   20.8   18.2    0.00    0.00    0.00
 2000 340   102    99   3995   30.55    0.00   14.15    3.73    2.46    7.26    9.8   23.8   21.6   17.6    0.00    0.00    0.00
 2000 341   103   100   4209   34.32    0.00   15.61    3.98    3.79    7.81   10.9   26.5   27.8   21.0    0.00    0.00    0.00
 2000 342   104   101   4400   33.44    0.00   17.18    4.51    4.61    4.26   11.4   27.5   29.2   23.8    0.00    0.00    0.00
 2000 343   105   102   4559   29.08    0.00   13.52    3.41    4.89    4.82   11.9   28.9   30.4   25.2    0.00    0.00    0.00
 2000 344   106   103   4766   36.76    0.00   17.41    4.56    5.70    5.92   12.6   30.4   30.2   25.7    0.00    0.00    0.00
 2000 345   107   104   4951   32.97    0.00   15.64    4.35    4.57    5.33   13.2   31.7   27.6   23.0    0.00    0.00    0.00
 2000 346   108   105   5078   27.32    1.84   15.25    4.73    4.81    1.88   13.1   31.4   28.5   24.6    0.00    0.00    0.00
 2000 347   109   106   5236   32.31    0.22   16.79    4.88    5.29    2.49   13.3   31.6   30.3   24.4    0.00    0.00    0.00
 2000 348   110   107   5404   35.69    0.24   18.13    5.04    6.68    2.94   13.5   31.9   31.9   27.2    6.65   20.50   29.44
 2000 349   111   108   5526   31.96    2.20   17.39    5.41    5.54    2.34   13.4   31.6   28.4   25.0    6.51   20.50   30.29
 2000 350   112   109   5650   31.64    1.99   17.22    5.73    4.76    2.14   13.3   31.3   27.6   22.6    6.35   20.45   31.34
 2000 351   113   110   5779   28.25    1.24   15.81    5.48    2.47    2.10   13.3   31.2   19.6   15.5    6.38   18.24   33.37
 2000 352   114   111   5944   33.30    1.56   18.60    6.36    3.37    2.62   13.3   31.1   23.0   17.7    6.33   18.10   33.86
 2000 353   115   112   6127   37.81    2.07   21.74    6.67    4.93    3.13   13.3   30.9   27.1   21.3    6.29   18.73   33.48
 2000 354   116   113   6294   33.39    1.88   18.66    6.37    3.92    2.46   13.3   30.7   24.5   19.0    6.26   18.76   33.61
 2000 355   117   114   6439   36.53    2.20   19.38    7.02    4.88    2.87   13.2   30.5   26.8   20.9    6.24   19.02   33.45
 2000 356   118   115   6438   15.38    1.44    8.91    2.97    2.87    0.15   13.2   30.3   20.3   18.3    6.24   18.86   33.65
 2000 357   119   116   6587   36.16    2.51   19.06    7.27    5.59    2.04   13.1   30.0   27.8   22.8    6.24   19.24   33.23
 2000 358   120   117   6643   17.99    1.86   10.56    3.85    2.90    0.03   13.0   29.7   19.6   17.8    6.24   18.98   33.50
 2000 359   121   118   6762   33.75    2.12   16.69    7.57    4.08    1.87   12.9   29.5   24.3   18.8    6.23   18.94   33.59
 2000 360   122   119   6876   35.15    2.90   18.02    6.76    6.80    1.98   12.8   29.1   29.8   25.3    6.27   19.19   33.10
 2000 361   123   120   6945   36.60    3.10   17.17    7.09    8.43    1.85   12.7   28.7   33.2   28.0    6.34   19.37   32.52
 2000 362   124   121   6960   16.94    2.41    9.61    3.09    4.64    0.11   12.5   28.3   26.7   22.8    6.33   19.55   32.41
 2000 363   125   122   6995   25.40    2.54   13.12    5.75    4.50    0.00   12.3   27.8   24.7   21.1    6.31   19.62   32.46
 2000 364   126   123   7073   23.97    2.39   13.27    5.33    4.01    0.00   12.2   27.3   22.8   20.0    6.29   19.61   32.60
 2000 365   127   124   7155   35.27    2.44   17.59    7.81    4.83    1.44   12.1   27.0   24.6   20.4    6.27   19.62   32.67
 2000 366   128   125   7215   35.63    2.71   17.86    7.71    5.92    1.43   12.0   26.6   27.6   22.8    6.27   19.73   32.57
 2001 001   129   126   7300   35.82    2.78   17.76    7.97    6.21    1.14   11.8   26.2   28.1   23.3    6.28   19.83   32.44
 2001 002   130   127   7360   35.31    2.77   17.49    7.96    6.19    0.95   11.7   25.8   28.2   23.2    6.28   19.91   32.34
 2001 003   131   128   7432   35.03    2.80   16.98    7.81    6.81    0.86   11.5   25.3   30.3   24.3    6.29   19.98   32.18
 2001 004   132   129   7457   27.93    3.10   13.88    5.94    7.79    0.00   11.2   24.7   31.6   27.6    6.34   20.04   31.85
 2001 005   133   130   7496   34.59    2.96   16.14    7.85    7.79    0.46   11.0   24.1   30.6   26.5    6.37   20.09   31.62
 2001 006   134   131   7508   33.71    2.95   15.78    7.39    8.29    0.35   10.8   23.5   32.1   27.4    6.40   20.13   31.38
 2001 007   135   132   7511   19.21    2.81   10.06    4.29    5.85    0.00   10.6   22.9   27.4   24.9    6.40   20.17   31.30
 2001 008   136   133   7527   27.53    2.58   13.47    6.50    5.72    0.00   10.4   22.3   27.0   23.2    6.39   20.21   31.34
 2001 009   137   134   7580   31.24    2.54   15.46    7.34    6.26    0.00   10.2   21.7   28.2   23.7    6.39   20.24   31.34
 2001 010   138   135   7586   14.34    2.15    8.32    3.35    3.60    0.00   10.0   21.2   21.8   19.4    6.37   20.13   31.57
 2001 011   139   136   7646   29.54    1.97   14.92    7.75    3.76    0.00    9.8   20.7   21.3   17.9    6.36   19.94   31.84
 2001 012   140   137   7729   28.73    1.86   15.22    7.35    3.53    0.20    9.7   20.3   21.8   16.9    6.35   19.72   32.09
 2001 013   141   138   7793   28.67    2.14   14.77    7.15    4.86    0.00    9.5   19.7   25.6   20.4    6.34   19.72   32.18
 2001 014   142   139   7802   23.51    2.45   11.61    5.39    6.60    0.00    9.3   19.1   29.0   25.4    6.35   19.78   32.04
 2001 015   143   140   7840   29.36    2.33   14.13    7.06    6.54    0.00    9.1   18.5   27.3   24.5    6.35   19.84   31.94
 2001 016   144   141   7886   27.45    2.27   13.17    6.49    6.68    0.00    8.9   17.9   28.5   24.9    6.36   19.89   31.84
 2001 017   145   142   7883   20.77    1.98   10.59    5.02    5.50    0.04    8.7   17.4   25.6   23.3    6.37   19.91   31.78
 2001 018   146   143   7888   18.23    1.89    9.44    4.13    5.28    0.05    8.5   16.9   24.5   23.3    6.38   19.92   31.72
 2001 019   147   144   7905   20.08    1.78   10.36    4.89    5.04    0.04    8.3   16.4   25.2   22.2    6.38   19.93   31.71
 2001 020   148   145   7973   29.49    1.72   14.48    8.08    4.72    0.00    8.2   15.9   24.2   20.0    6.37   19.90   31.82
 2001 021   149   146   8048   29.07    1.64   14.33    8.03    4.55    0.00    8.0   15.4   24.4   19.4    6.35   19.85   31.95
 2001 022   150   147   8077   18.33    1.56    9.32    4.36    4.76    0.04    7.8   14.9   26.3   21.5    6.35   19.84   31.94
 2001 023   151   148   8144   28.15    1.52   12.94    7.37    6.45    0.08    7.7   14.5   28.8   24.2    6.37   19.85   31.83
 2001 024   152   149   8206   27.31    1.36   12.24    7.02    6.47    0.11    7.5   14.1   30.0   24.3    6.39   19.85   31.71
 2001 025   153   150   8258   26.17    1.40   11.40    6.50    7.06    0.10    7.4   13.7   30.5   26.0    6.41   19.85   31.56
 2001 026   154   151   8299   22.84    1.46    9.84    5.34    7.16    0.07    7.2   13.2   31.6   26.9    6.43   19.85   31.44
 2001 027   155   152   8308   12.82    1.53    6.46    2.52    4.85    0.01    7.0   12.7   25.0   23.6    6.43   19.87   31.43
 2001 028   156   153   8315   10.46    1.35    5.75    2.13    3.51    0.01    6.8   12.3   21.2   20.1    6.43   19.86   31.47
 2001 029   157   154   8387   23.49    1.10   11.27    6.62    4.13    0.06    6.7   11.9   24.8   19.6    6.43   19.81   31.52
 2001 030   158   155   8487   23.35    0.00    9.42    2.88    4.53    3.42    7.2   13.3   24.9   21.1    6.32   20.03   31.99
 2001 031   159   156   8252   21.65    0.64   10.12    3.25    5.74    0.29    7.1   12.7   28.8   24.3    6.22   20.25   32.38
 2001 032   160   157   8041   14.68    1.42    6.93    2.05    5.46    0.00    6.8   11.7   28.9   25.5    6.16   20.39   32.60
 2001 033   161   158   7878   14.86    1.22    6.23    2.52    5.71    0.00    6.5   10.9   30.7   26.5    6.13   20.47   32.71
 2001 034   162   159   7757   11.27    0.53    5.19    1.54    3.59    0.13    6.3   10.4   24.5   21.4    6.09   20.56   32.89
 2001 035   163   160   7654    9.45    0.85    4.25    1.69    3.48    0.00    6.1    9.7   26.5   21.3    6.07   20.59   32.96
 2001 036   164   161   7557    7.27    0.79    2.95    1.06    3.67    0.00    5.8    9.1   26.2   23.1    6.07   20.59   32.96
 2001 037   165   162   7472    5.68    0.71    1.99    0.60    3.83    0.00    5.5    8.6   29.4   23.9    6.07   20.59   32.95
 2001 038   166   163   7392    4.35    0.68    0.34    0.10    4.61    0.00    5.2    8.1   32.3   27.3    6.07   20.59   32.94
 2001 039   167   164   7323    2.10    0.61    0.00    0.00    3.70    0.00    4.9    7.6   28.5   25.1    6.07   20.59   32.94
 2001 040   168   165   7266    2.49    0.56    0.00    0.00    4.01    0.00    4.6    7.2   30.6   26.2    6.07   20.59   32.94
 2001 041   169   166   7216    1.21    0.53    0.00    0.00    3.91    0.00    4.4    6.8   29.9   26.4    6.07   20.59   32.94
 2001 042   170   167   7174    1.52    0.49    0.00    0.00    4.15    0.00    4.1    6.4   31.6   27.3    6.07   20.59   32.94

*DSSAT Cropping System Model Ver. 4.0.2.000               Aug 29, 2016; 11:26:28

*RUN   2        : UYSB                    
 MODEL          : CRGRO040 - Soybean         
 EXPERIMENT     : UYSB0414 SB    late to create DSS                             
 TREATMENT  1   : UYSB                    

@YEAR DOY   DAS   DAP   TWAD    PHAD    CMAD    CGRD    GRAD    MRAD    CHAD   CL%D   CS%D   TGNN   TGAV    GN%D    GL%D    GC%D
 2001 241     3     0      0    0.00    0.00    0.00    0.00    0.00    0.00    0.0    0.0   20.4   15.3    0.00    0.00    0.00
 2001 242     4     1      0    0.00    0.00    0.00    0.00    0.00    0.00    0.0    0.0   23.2   19.0    0.00    0.00    0.00
 2001 243     5     2      0    0.00    0.00    0.00    0.00    0.00    0.00    0.0    0.0   21.2   19.6    0.00    0.00    0.00
 2001 244     6     3      0    0.00    0.00    0.00    0.00    0.00    0.00    0.0    0.0   18.5   17.6    0.00    0.00    0.00
 2001 245     7     4      0    0.00    0.00    0.00    0.00    0.00    0.00    0.0    0.0   15.8   14.8    0.00    0.00    0.00
 2001 246     8     5      0    0.00    0.00    0.00    0.00    0.00    0.00    0.0    0.0   14.8   14.1    0.00    0.00    0.00
 2001 247     9     6      0    0.00    0.00    0.00    0.00    0.00    0.00    0.0    0.0   13.0   11.7    0.00    0.00    0.00
 2001 248    10     7      0    0.00    0.00    0.00    0.00    0.00    0.00    0.0    0.0   14.8   12.4    0.00    0.00    0.00
 2001 249    11     8      0    0.00    0.00    0.00    0.00    0.00    0.00    0.0    0.0   16.8   14.1    0.00    0.00    0.00
 2001 250    12     9      0    0.00    0.00    0.00    0.00    0.00    0.00    0.0    0.0   16.8   15.7    0.00    0.00    0.00
 2001 251    13    10      7    0.00    0.00    0.00    0.00    0.00    0.00    4.0    7.9   16.5   13.4    0.00    0.00    0.00
 2001 252    14    11      7    0.05    0.00    0.03    0.01    0.00    0.00    4.0    7.9   14.3   11.3    0.00    0.00    0.00
 2001 253    15    12      8    0.08    0.00    0.05    0.02    0.00    0.00    3.9    7.9   15.1   11.0    0.00    0.00    0.00
 2001 254    16    13      8    0.09    0.00    0.06    0.02    0.00    0.00    3.9    7.8   15.0   11.1    0.00    0.00    0.00
 2001 255    17    14      9    0.09    0.00    0.06    0.02    0.00    0.00    3.9    7.8   16.9   11.3    0.00    0.00    0.00
 2001 256    18    15     10    0.11    0.00    0.07    0.02    0.01    0.00    3.9    7.8   18.9   14.2    0.00    0.00    0.00
 2001 257    19    16     10    0.07    0.00    0.04    0.02    0.00    0.00    3.9    7.7   14.2   11.2    0.00    0.00    0.00
 2001 258    20    17     10    0.07    0.00    0.05    0.02    0.00    0.00    3.9    7.7   12.4    9.3    0.00    0.00    0.00
 2001 259    21    18     11    0.06    0.00    0.04    0.01    0.00    0.00    3.9    7.7   10.8    8.3    0.00    0.00    0.00
 2001 260    22    19     11    0.09    0.00    0.06    0.02    0.00    0.00    3.8    7.7   13.9    9.2    0.00    0.00    0.00
 2001 261    23    20     12    0.16    0.00    0.10    0.03    0.01    0.00    3.8    7.7   19.7   14.0    0.00    0.00    0.00
 2001 262    24    21     13    0.16    0.00    0.10    0.03    0.01    0.00    3.8    7.6   21.0   16.3    0.00    0.00    0.00
 2001 263    25    22     15    0.23    0.00    0.15    0.04    0.01    0.00    3.8    7.6   23.2   18.3    0.00    0.00    0.00
 2001 264    26    23     16    0.16    0.00    0.10    0.03    0.01    0.00    3.7    7.5   23.2   19.5    0.00    0.00    0.00
 2001 265    27    24     17    0.22    0.00    0.14    0.04    0.02    0.00    3.7    7.5   23.6   19.0    0.00    0.00    0.00
 2001 266    28    25     18    0.20    0.00    0.13    0.04    0.01    0.00    3.6    7.4   22.0   18.8    0.00    0.00    0.00
 2001 267    29    26     19    0.21    0.00    0.13    0.04    0.02    0.00    3.6    7.4   24.8   21.4    0.00    0.00    0.00
 2001 268    30    27     20    0.10    0.00    0.06    0.02    0.01    0.00    3.6    7.3   18.0   15.1    0.00    0.00    0.00
 2001 269    31    28     21    0.13    0.00    0.08    0.03    0.01    0.00    3.6    7.3   16.3   13.8    0.00    0.00    0.00
 2001 270    32    29     21    0.09    0.00    0.05    0.02    0.01    0.00    3.6    7.2   14.4   12.4    0.00    0.00    0.00
 2001 271    33    30     22    0.15    0.00    0.09    0.03    0.01    0.00    3.6    7.2   19.8   17.2    0.00    0.00    0.00
 2001 272    34    31     23    0.27    0.00    0.17    0.06    0.02    0.00    3.6    7.1   20.4   18.6    0.00    0.00    0.00
 2001 273    35    32     24    0.18    0.00    0.11    0.04    0.01    0.00    3.6    7.1   18.6   17.6    0.00    0.00    0.00
 2001 274    36    33     26    0.20    0.00    0.13    0.04    0.02    0.00    3.6    7.1   18.6   17.6    0.00    0.00    0.00
 2001 275    37    34     27    0.22    0.00    0.12    0.05    0.01    0.00    3.6    7.0   17.2   15.8    0.00    0.00    0.00
 2001 276    38    35     28    0.25    0.00    0.15    0.05    0.02    0.00    3.6    7.0   18.6   16.4    0.00    0.00    0.00
 2001 277    39    36     31    0.44    0.00    0.27    0.09    0.03    0.00    3.6    7.1   20.1   17.6    0.00    0.00    0.00
 2001 278    40    37     34    0.57    0.00    0.36    0.12    0.03    0.00    3.6    7.1   18.6   16.4    0.00    0.00    0.00
 2001 279    41    38     38    0.60    0.00    0.38    0.12    0.03    0.00    3.6    7.2   19.1   16.8    0.00    0.00    0.00
 2001 280    42    39     40    0.34    0.00    0.21    0.07    0.02    0.00    3.6    7.2   18.6   17.0    0.00    0.00    0.00
 2001 281    43    40     43    0.54    0.00    0.34    0.11    0.03    0.00    3.5    7.2   18.5   16.7    0.00    0.00    0.00
 2001 282    44    41     46    0.52    0.00    0.32    0.11    0.03    0.00    3.5    7.2   16.7   15.4    0.00    0.00    0.00
 2001 283    45    42     53    1.06    0.00    0.66    0.21    0.05    0.00    3.6    7.3   21.5   16.8    0.00    0.00    0.00
 2001 284    46    43     60    1.19    0.00    0.74    0.24    0.06    0.00    3.6    7.3   20.1   17.2    0.00    0.00    0.00
 2001 285    47    44     65    0.86    0.00    0.54    0.17    0.05    0.00    3.6    7.3   19.4   16.5    0.00    0.00    0.00
 2001 286    48    45     74    1.33    0.00    0.84    0.26    0.07    0.00    3.6    7.4   21.4   17.0    0.00    0.00    0.00
 2001 287    49    46     83    1.54    0.00    0.97    0.30    0.09    0.00    3.6    7.4   22.6   18.7    0.00    0.00    0.00
 2001 288    50    47     87    0.74    0.00    0.46    0.15    0.06    0.00    3.5    7.3   19.6   18.4    0.00    0.00    0.00
 2001 289    51    48     94    1.11    0.01    0.69    0.22    0.08    0.00    3.5    7.3   21.7   19.5    0.00    0.00    0.00
 2001 290    52    49    104    1.75    0.01    1.10    0.34    0.12    0.00    3.5    7.3   22.7   19.7    0.00    0.00    0.00
 2001 291    53    50    116    1.95    0.01    1.21    0.37    0.15    0.00    3.5    7.3   25.5   21.3    0.00    0.00    0.00
 2001 292    54    51    132    2.58    0.01    1.61    0.48    0.19    0.00    3.5    7.3   24.9   21.2    0.00    0.00    0.00
 2001 293    55    52    148    2.71    0.01    1.63    0.55    0.21    0.00    3.5    7.3   25.7   21.2    0.00    0.00    0.00
 2001 294    56    53    162    2.38    0.01    1.48    0.50    0.11    0.00    3.5    7.3   17.8   14.8    0.00    0.00    0.00
 2001 295    57    54    179    2.66    0.01    1.66    0.56    0.11    0.00    3.6    7.3   17.5   13.7    0.00    0.00    0.00
 2001 296    58    55    199    3.27    0.01    2.03    0.69    0.15    0.00    3.6    7.3   20.6   15.0    0.00    0.00    0.00
 2001 297    59    56    225    4.43    0.01    2.71    0.93    0.27    0.00    3.6    7.3   24.5   18.6    0.00    0.00    0.00
 2001 298    60    57    255    5.18    0.02    3.08    1.06    0.46    0.00    3.6    7.3   29.7   23.3    0.00    0.00    0.00
 2001 299    61    58    271    2.83    0.02    1.69    0.59    0.25    0.00    3.6    7.2   22.1   20.7    0.00    0.00    0.00
 2001 300    62    59    286    2.68    0.02    1.61    0.53    0.22    0.00    3.5    7.2   20.3   19.5    0.00    0.00    0.00
 2001 301    63    60    304    3.25    0.02    1.94    0.64    0.29    0.00    3.5    7.1   22.7   20.9    0.00    0.00    0.00
 2001 302    64    61    325    3.69    0.02    2.27    0.70    0.32    0.00    3.5    7.1   23.0   20.9    0.00    0.00    0.00
 2001 303    65    62    370    7.56    0.02    4.63    1.52    0.39    0.00    3.5    7.1   20.4   17.6    0.00    0.00    0.00
 2001 304    66    63    422    8.49    0.02    5.25    1.68    0.43    0.01    3.6    7.3   20.7   17.1    0.00    0.00    0.00
 2001 305    67    64    481    9.69    0.02    5.95    1.93    0.51    0.04    3.7    7.5   22.0   17.2    0.00    0.00    0.00
 2001 306    68    65    536    8.99    0.03    5.50    1.80    0.45    0.06    3.7    7.8   20.2   16.4    0.00    0.00    0.00
 2001 307    69    66    601   10.59    0.03    6.48    2.13    0.53    0.11    3.9    8.1   20.7   16.3    0.00    0.00    0.00
 2001 308    70    67    674   12.22    0.04    7.32    2.49    0.68    0.16    4.0    8.5   22.0   17.5    0.00    0.00    0.00
 2001 309    71    68    758   14.29    0.06    8.34    2.87    1.04    0.23    4.2    9.0   26.4   20.5    0.00    0.00    0.00
 2001 310    72    69    812    9.53    0.07    5.35    1.91    0.88    0.18    4.2    9.3   25.2   21.7    0.00    0.00    0.00
 2001 311    73    70    843    5.73    0.05    3.24    1.17    0.43    0.13    4.3    9.4   17.4   16.4    0.00    0.00    0.00
 2001 312    74    71    913   12.13    0.06    7.03    2.41    0.74    0.31    4.5    9.9   20.5   17.6    0.00    0.00    0.00
 2001 313    75    72    998   14.32    0.07    8.75    2.71    0.91    0.43    4.7   10.5   22.4   18.2    0.00    0.00    0.00
 2001 314    76    73   1058   10.69    0.11    6.40    1.86    1.01    0.36    4.9   10.9   24.1   21.2    0.00    0.00    0.00
 2001 315    77    74   1183   20.90    0.10   12.27    3.81    1.38    0.77    5.2   11.8   24.0   19.4    0.00    0.00    0.00
 2001 316    78    75   1307   21.82    0.14   11.60    4.24    1.70    0.81    5.4   12.4   26.0   21.0    0.00    0.00    0.00
 2001 317    79    76   1368   11.76    0.15    6.08    2.35    1.07    0.47    5.5   12.7   22.8   19.8    0.00    0.00    0.00
 2001 318    80    77   1480   20.22    0.17   11.09    3.88    1.59    0.92    5.7   13.3   23.3   20.6    0.00    0.00    0.00
 2001 319    81    78   1620   24.48    0.17   13.61    4.81    1.70    1.19    6.0   14.1   23.4   19.4    0.00    0.00    0.00
 2001 320    82    79   1728   19.00    0.14   10.47    3.86    1.06    0.94    6.2   14.6   18.8   15.8    0.00    0.00    0.00
 2001 321    83    80   1861   23.17    0.17   12.97    4.68    1.37    1.23    6.4   15.2   22.2   16.3    0.00    0.00    0.00
 2001 322    84    81   2018   27.78    0.26   15.77    5.38    2.25    1.59    6.7   15.9   26.6   20.3    0.00    0.00    0.00
 2001 323    85    82   2162   25.29    0.34   14.54    4.62    2.53    1.51    7.0   16.4   27.9   22.3    0.00    0.00    0.00
 2001 324    86    83   2336   29.28    0.40   17.28    4.76    3.23    2.01    7.3   17.1   30.2   23.9    0.00    0.00    0.00
 2001 325    87    84   2439   19.68    0.46   11.13    3.61    2.44    1.20    7.4   17.3   25.8   23.2    0.00    0.00    0.00
 2001 326    88    85   2598   27.21    0.49   15.98    4.39    3.08    1.98    7.6   17.9   27.9   23.6    0.00    0.00    0.00
 2001 327    89    86   2776   30.18    0.00   15.16    4.01    4.04    4.40    8.5   20.3   31.3   26.0    0.00    0.00    0.00
 2001 328    90    87   2833   11.49    0.38    6.84    2.11    1.23    0.62    8.5   20.3   19.2   16.6    0.00    0.00    0.00
 2001 329    91    88   2920   15.64    0.31    8.94    2.94    1.16    0.99    8.6   20.4   18.0   14.7    0.00    0.00    0.00
 2001 330    92    89   2982   12.38    0.47    7.38    1.95    1.50    0.67    8.6   20.4   19.7   18.2    0.00    0.00    0.00
 2001 331    93    90   3196   31.82    0.00   10.92    2.66    2.80   12.00   11.0   26.7   23.6   20.3    0.00    0.00    0.00
 2001 332    94    91   3374   27.31    0.00   11.42    2.98    2.20    7.69   12.3   30.1   22.0   17.9    0.00    0.00    0.00
 2001 333    95    92   3541   26.06    0.00   11.36    3.16    2.14    6.61   13.4   32.6   21.5   17.6    0.00    0.00    0.00
 2001 334    96    93   3590   10.09    0.26    5.69    1.65    1.19    0.40   13.4   32.6   16.6   15.0    0.00    0.00    0.00
 2001 335    97    94   3784   29.86    0.00   12.35    3.31    2.55    8.36   14.6   35.5   22.6   18.4    0.00    0.00    0.00
 2001 336    98    95   3966   30.18    0.00   15.49    4.44    2.83    4.26   15.1   36.4   23.6   19.1    0.00    0.00    0.00
 2001 337    99    96   4036   14.32    1.00    8.53    2.71    1.81    0.71   15.0   36.1   19.8   17.3    0.00    0.00    0.00
 2001 338   100    97   4107   14.95    1.08    8.84    2.77    2.02    0.75   14.9   35.8   21.2   18.2    0.00    0.00    0.00
 2001 339   101    98   4213   21.07    1.23   12.00    3.99    2.58    1.40   14.8   35.4   21.8   19.6    0.00    0.00    0.00
 2001 340   102    99   4363   27.91    0.16   15.27    4.43    3.12    2.41   14.9   35.6   23.6   20.2    0.00    0.00    0.00
 2001 341   103   100   4505   30.88    0.14   16.54    4.84    3.80    2.75   15.1   35.8   26.5   21.6    6.21   20.17   32.54
 2001 342   104   101   4605   22.65    1.02   13.16    4.42    1.86    1.55   15.1   35.6   17.9   15.3    6.40   16.07   35.40
 2001 343   105   102   4728   22.59    0.91   12.58    4.42    1.73    1.93   15.1   35.4   19.3   13.6    6.54   14.46   36.17
 2001 344   106   103   4876   28.93    1.42   16.86    5.39    2.84    2.32   15.0   35.1   22.8   17.9    6.41   15.92   35.51
 2001 345   107   104   4997   26.33    1.48   14.35    5.21    2.80    1.97   14.9   34.8   23.1   17.9    6.35   16.60   35.20
 2001 346   108   105   5103   26.72    2.04   14.77    4.95    4.14    1.97   14.8   34.5   27.4   22.4    6.32   17.73   34.27
 2001 347   109   106   5179   26.48    2.27   13.99    5.11    4.52    1.73   14.7   34.0   26.9   23.7    6.33   18.49   33.46
 2001 348   110   107   5268   29.02    2.23   15.14    5.73    4.46    2.00   14.5   33.6   25.8   23.0    6.32   19.03   33.00
 2001 349   111   108   5391   31.68    2.05   17.25    6.27    4.00    2.20   14.4   33.3   24.5   21.0    6.28   19.26   32.96
 2001 350   112   109   5470   29.54    1.98   14.99    6.40    3.63    1.89   14.4   33.0   24.1   19.9    6.26   19.29   33.07
 2001 351   113   110   5632   33.50    2.13   17.86    6.71    4.24    2.49   14.3   32.7   26.3   20.7    6.24   19.41   33.06
 2001 352   114   111   5720   33.41    2.22   17.56    6.74    4.32    2.57   14.2   32.5   25.9   20.9    6.23   19.50   33.03
 2001 353   115   112   5802   25.65    2.50   13.21    5.46    4.68    0.95   14.0   32.0   28.1   23.1    6.25   19.68   32.79
 2001 354   116   113   5844   24.06    2.70   12.43    5.03    5.26    0.68   13.8   31.4   29.4   25.0    6.28   19.80   32.46
 2001 355   117   114   5851   12.79    1.99    7.77    2.87    2.51    0.00   13.7   31.0   19.8   18.1    6.27   19.56   32.76
 2001 356   118   115   5949   30.90    2.23   16.38    6.83    3.95    1.31   13.6   30.6   23.2   20.3    6.26   19.57   32.82
 2001 357   119   116   6064   31.40    2.09   16.86    6.55    3.72    2.13   13.5   30.4   24.6   18.7    6.25   19.47   32.98
 2001 358   120   117   6159   32.23    2.32   16.25    7.29    4.25    1.57   13.4   30.1   25.3   20.3    6.24   19.49   33.01
 2001 359   121   118   6262   32.96    2.44   16.49    7.36    4.64    1.54   13.2   29.7   26.4   21.1    6.23   19.55   32.98
 2001 360   122   119   6359   32.73    2.59   16.27    7.20    5.28    1.45   13.1   29.3   28.3   22.6    6.24   19.65   32.87
 2001 361   123   120   6444   32.06    2.80   15.80    6.92    6.09    1.25   12.9   28.8   29.7   24.7    6.26   19.74   32.65
 2001 362   124   121   6503   31.09    2.77   15.43    6.81    5.80    1.16   12.7   28.3   29.1   24.0    6.27   19.82   32.50
 2001 363   125   122   6546   29.94    2.83   14.98    6.69    5.85    0.72   12.5   27.8   28.5   24.4    6.28   19.89   32.34
 2001 364   126   123   6559   29.38    2.84   14.56    6.49    6.21    0.65   12.3   27.2   29.7   25.2    6.30   19.95   32.16
 2001 365   127   124   6578   24.65    2.81   12.52    5.55    5.87    0.00   12.0   26.5   29.6   25.2    6.32   20.01   31.99
 2002 001   128   125   6652   31.20    2.58   15.24    7.56    5.27    0.48   11.8   25.9   26.9   22.7    6.31   20.05   31.98
 2002 002   129   126   6722   29.33    2.59   14.72    6.98    5.29    0.29   11.6   25.4   26.8   23.0    6.31   20.09   31.96
 2002 003   130   127   6782   30.90    2.48   15.48    7.43    5.08    0.56   11.4   24.8   26.0   22.1    6.30   20.11   31.98
 2002 004   131   128   6821   28.20    2.45   14.36    6.87    4.96    0.09   11.2   24.2   26.4   22.0    6.30   20.13   32.01
 2002 005   132   129   6802   13.37    2.26    7.76    3.24    3.51    0.00   11.0   23.6   21.5   20.4    6.29   20.09   32.12
 2002 006   133   130   6843   22.82    2.28   11.50    5.86    4.34    0.00   10.8   23.0   23.9   21.4    6.28   20.09   32.16
 2002 007   134   131   6901   27.30    2.03   14.10    7.12    3.74    0.04   10.6   22.5   22.4   18.8    6.27   19.99   32.32
 2002 008   135   132   6967   29.75    2.11   14.89    7.39    4.59    0.46   10.4   22.0   26.3   20.3    6.26   19.96   32.38
 2002 009   136   133   7030   27.62    2.19   14.05    6.98    4.80    0.00   10.2   21.4   25.7   21.5    6.26   19.98   32.40
 2002 010   137   134   7083   27.97    2.20   13.93    6.99    5.28    0.00    9.9   20.8   27.3   22.5    6.26   20.01   32.37
 2002 011   138   135   7103   26.27    2.26   12.73    6.40    5.97    0.00    9.7   20.1   28.8   24.4    6.27   20.04   32.27
 2002 012   139   136   7151   28.13    2.22   13.19    6.83    6.65    0.00    9.4   19.5   30.4   25.5    6.29   20.08   32.13
 2002 013   140   137   7196   26.68    2.19   12.46    6.41    6.89    0.00    9.2   18.8   30.9   26.3    6.31   20.11   31.98
 2002 014   141   138   7209   15.75    1.62    8.52    4.01    3.51    0.05    9.0   18.3   22.5   19.4    6.31   20.02   32.04
 2002 015   142   139   7259   23.09    1.59   11.90    6.48    3.24    0.00    8.8   17.8   21.6   17.2    6.31   19.86   32.21
 2002 016   143   140   7310   23.75    1.58   12.22    6.64    3.45    0.00    8.6   17.3   22.3   17.7    6.30   19.74   32.36
 2002 017   144   141   7359   23.32    1.61   11.75    6.42    3.87    0.00    8.4   16.8   23.8   19.0    6.30   19.68   32.46
 2002 018   145   142   7435   24.54    1.57   12.20    6.83    3.94    0.00    8.2   16.2   23.3   19.1    6.29   19.64   32.55
 2002 019   146   143   7488   25.49    1.63   12.34    6.77    4.85    0.00    8.0   15.7   26.6   21.1    6.29   19.66   32.56
 2002 020   147   144   7519   22.92    1.47   10.06    5.52    6.75    0.08    7.8   15.2   32.2   26.0    6.31   19.67   32.37
 2002 021   148   145   7522   19.15    1.49    8.98    4.54    5.57    0.06    7.7   14.7   27.8   24.5    6.33   19.69   32.27
 2002 022   149   146   7559   22.88    1.31   10.00    5.61    6.38    0.10    7.5   14.3   30.5   25.8    6.35   19.69   32.11
 2002 023   150   147   7597   21.32    1.39    9.62    5.24    6.01    0.04    7.3   13.7   30.8   25.2    6.37   19.71   32.01
 2002 024   151   148   7609   14.29    1.49    7.01    2.40    5.07    0.00    7.1   13.2   28.0   24.5    6.32   19.82   32.17
 2002 025   152   149   7401   20.59    0.40    9.58    2.85    5.37    0.31    7.0   12.7   27.9   24.3    6.21   20.08   32.59
 2002 026   153   150   7206   10.87    1.18    5.53    1.74    3.86    0.00    6.7   11.8   24.8   22.3    6.19   20.13   32.67
 2002 027   154   151   7057   10.88    1.03    5.13    1.82    4.00    0.00    6.4   10.9   25.7   23.2    6.17   20.18   32.74
 2002 028   155   152   6947   11.66    0.89    5.12    2.04    4.25    0.00    6.1   10.2   29.1   23.8    6.16   20.23   32.80
 2002 029   156   153   6848    9.20    0.78    3.76    1.41    4.30    0.00    5.8    9.5   30.7   24.7    6.15   20.25   32.80
 2002 030   157   154   6756    6.96    0.70    2.78    0.91    3.90    0.00    5.6    8.9   29.1   24.5    6.15   20.25   32.78
 2002 031   158   155   6679    4.69    0.62    1.57    0.45    3.34    0.00    5.3    8.3   26.5   23.4    6.16   20.26   32.77
 2002 032   159   156   6619    4.39    0.52    1.77    0.51    2.71    0.00    5.0    7.9   24.2   21.0    6.16   20.25   32.77
 2002 033   160   157   6569    3.13    0.44    1.17    0.34    2.14    0.00    4.8    7.5   22.9   18.5    6.16   20.25   32.78
 2002 034   161   158   6525    2.39    0.40    0.65    0.19    2.00    0.00    4.6    7.1   22.6   17.9    6.16   20.24   32.78
 2002 035   162   159   6484    2.06    0.40    0.03    0.01    2.43    0.00    4.4    6.7   25.2   20.3    6.16   20.24   32.78
 2002 036   163   160   6448    1.31    0.39    0.00    0.00    2.60    0.00    4.2    6.4   26.0   21.6    6.16   20.24   32.78

*DSSAT Cropping System Model Ver. 4.0.2.000               Aug 29, 2016; 11:26:28

*RUN   3        : UYSB                    
 MODEL          : CRGRO040 - Soybean         
 EXPERIMENT     : UYSB0414 SB    late to create DSS                             
 TREATMENT  1   : UYSB                    

@YEAR DOY   DAS   DAP   TWAD    PHAD    CMAD    CGRD    GRAD    MRAD    CHAD   CL%D   CS%D   TGNN   TGAV    GN%D    GL%D    GC%D
 2002 241     3     0      0    0.00    0.00    0.00    0.00    0.00    0.00    0.0    0.0   16.6   13.9    0.00    0.00    0.00
 2002 242     4     1      0    0.00    0.00    0.00    0.00    0.00    0.00    0.0    0.0   12.8   10.1    0.00    0.00    0.00
 2002 243     5     2      0    0.00    0.00    0.00    0.00    0.00    0.00    0.0    0.0   10.6    7.8    0.00    0.00    0.00
 2002 244     6     3      0    0.00    0.00    0.00    0.00    0.00    0.00    0.0    0.0    9.1    6.5    0.00    0.00    0.00
 2002 245     7     4      0    0.00    0.00    0.00    0.00    0.00    0.00    0.0    0.0   11.3    6.6    0.00    0.00    0.00
 2002 246     8     5      0    0.00    0.00    0.00    0.00    0.00    0.00    0.0    0.0   13.8    9.3    0.00    0.00    0.00
 2002 247     9     6      0    0.00    0.00    0.00    0.00    0.00    0.00    0.0    0.0   17.4   11.8    0.00    0.00    0.00
 2002 248    10     7      0    0.00    0.00    0.00    0.00    0.00    0.00    0.0    0.0   20.1   14.5    0.00    0.00    0.00
 2002 249    11     8      0    0.00    0.00    0.00    0.00    0.00    0.00    0.0    0.0   14.9   11.4    0.00    0.00    0.00
 2002 250    12     9      0    0.00    0.00    0.00    0.00    0.00    0.00    0.0    0.0   13.5    9.8    0.00    0.00    0.00
 2002 251    13    10      0    0.00    0.00    0.00    0.00    0.00    0.00    0.0    0.0   14.0    9.8    0.00    0.00    0.00
 2002 252    14    11      7    0.00    0.00    0.00    0.00    0.00    0.00    4.0    7.9   16.9   12.7    0.00    0.00    0.00
 2002 253    15    12      7    0.04    0.00    0.02    0.01    0.00    0.00    3.9    7.9   16.7   13.6    0.00    0.00    0.00
 2002 254    16    13      8    0.04    0.00    0.03    0.01    0.00    0.00    3.9    7.8   16.8   16.3    0.00    0.00    0.00
 2002 255    17    14      8    0.10    0.00    0.06    0.02    0.00    0.00    3.9    7.8   16.1   13.5    0.00    0.00    0.00
 2002 256    18    15      9    0.11    0.00    0.07    0.02    0.00    0.00    3.9    7.7   16.2   12.3    0.00    0.00    0.00
 2002 257    19    16     10    0.12    0.00    0.07    0.03    0.00    0.00    3.9    7.7   16.5   12.7    0.00    0.00    0.00
 2002 258    20    17     10    0.10    0.00    0.06    0.02    0.00    0.00    3.8    7.7   15.7   12.9    0.00    0.00    0.00
 2002 259    21    18     11    0.08    0.00    0.05    0.02    0.00    0.00    3.8    7.6   16.7   13.9    0.00    0.00    0.00
 2002 260    22    19     11    0.07    0.00    0.04    0.02    0.01    0.00    3.8    7.6   18.5   17.0    0.00    0.00    0.00
 2002 261    23    20     11    0.08    0.00    0.05    0.02    0.01    0.00    3.7    7.5   18.2   16.3    0.00    0.00    0.00
 2002 262    24    21     12    0.09    0.00    0.06    0.02    0.01    0.00    3.7    7.5   18.0   13.6    0.00    0.00    0.00
 2002 263    25    22     13    0.12    0.00    0.08    0.03    0.00    0.00    3.7    7.5   13.9   10.2    0.00    0.00    0.00
 2002 264    26    23     14    0.14    0.00    0.09    0.03    0.01    0.00    3.7    7.5   15.6   11.3    0.00    0.00    0.00
 2002 265    27    24     15    0.18    0.00    0.12    0.04    0.01    0.00    3.7    7.5   19.2   13.6    0.00    0.00    0.00
 2002 266    28    25     16    0.18    0.00    0.12    0.04    0.01    0.00    3.7    7.5   17.3   13.4    0.00    0.00    0.00
 2002 267    29    26     17    0.20    0.00    0.13    0.04    0.01    0.00    3.7    7.5   18.5   12.9    0.00    0.00    0.00
 2002 268    30    27     19    0.27    0.00    0.18    0.05    0.02    0.00    3.7    7.5   22.5   16.8    0.00    0.00    0.00
 2002 269    31    28     21    0.27    0.00    0.18    0.05    0.02    0.00    3.6    7.5   22.2   16.1    0.00    0.00    0.00
 2002 270    32    29     23    0.32    0.00    0.19    0.07    0.02    0.00    3.6    7.4   23.7   17.9    0.00    0.00    0.00
 2002 271    33    30     25    0.35    0.00    0.21    0.08    0.03    0.00    3.6    7.4   27.0   21.7    0.00    0.00    0.00
 2002 272    34    31     25    0.14    0.00    0.08    0.03    0.01    0.00    3.6    7.3   17.1   16.4    0.00    0.00    0.00
 2002 273    35    32     27    0.32    0.00    0.20    0.07    0.02    0.00    3.6    7.3   19.2   16.7    0.00    0.00    0.00
 2002 274    36    33     30    0.38    0.00    0.24    0.08    0.02    0.00    3.6    7.3   19.8   15.8    0.00    0.00    0.00
 2002 275    37    34     32    0.44    0.00    0.28    0.09    0.03    0.00    3.6    7.3   22.7   18.5    0.00    0.00    0.00
 2002 276    38    35     36    0.61    0.00    0.38    0.13    0.04    0.00    3.6    7.3   21.7   18.9    0.00    0.00    0.00
 2002 277    39    36     39    0.56    0.00    0.35    0.12    0.04    0.00    3.6    7.3   23.8   19.0    0.00    0.00    0.00
 2002 278    40    37     43    0.66    0.00    0.41    0.13    0.05    0.00    3.6    7.3   22.9   21.0    0.00    0.00    0.00
 2002 279    41    38     47    0.72    0.00    0.44    0.14    0.07    0.00    3.5    7.2   26.9   23.0    0.00    0.00    0.00
 2002 280    42    39     49    0.41    0.00    0.26    0.08    0.03    0.00    3.5    7.2   19.8   16.6    0.00    0.00    0.00
 2002 281    43    40     52    0.43    0.00    0.26    0.09    0.03    0.00    3.5    7.2   20.1   18.0    0.00    0.00    0.00
 2002 282    44    41     54    0.47    0.00    0.28    0.10    0.04    0.00    3.5    7.1   18.9   18.5    0.00    0.00    0.00
 2002 283    45    42     57    0.52    0.00    0.32    0.11    0.04    0.00    3.5    7.1   19.2   18.5    0.00    0.00    0.00
 2002 284    46    43     62    0.80    0.00    0.50    0.16    0.06    0.00    3.5    7.1   22.6   20.5    0.00    0.00    0.00
 2002 285    47    44     71    1.60    0.00    0.98    0.30    0.13    0.00    3.5    7.2   27.3   23.3    0.00    0.00    0.00
 2002 286    48    45     83    1.98    0.01    1.20    0.38    0.18    0.00    3.5    7.2   28.5   24.8    0.00    0.00    0.00
 2002 287    49    46     96    2.21    0.01    1.33    0.43    0.21    0.00    3.5    7.3   29.4   25.5    0.00    0.00    0.00
 2002 288    50    47    103    1.23    0.01    0.72    0.24    0.15    0.00    3.4    7.2   28.9   25.9    0.00    0.00    0.00
 2002 289    51    48    110    1.25    0.00    0.79    0.25    0.07    0.00    3.4    7.2   19.6   16.7    0.00    0.00    0.00
 2002 290    52    49    125    2.34    0.00    1.50    0.46    0.11    0.00    3.5    7.3   19.9   15.7    0.00    0.00    0.00
 2002 291    53    50    143    2.98    0.01    1.82    0.63    0.18    0.00    3.5    7.3   23.7   18.9    0.00    0.00    0.00
 2002 292    54    51    152    1.70    0.01    1.01    0.34    0.16    0.00    3.5    7.2   23.5   21.6    0.00    0.00    0.00
 2002 293    55    52    163    1.90    0.01    1.14    0.38    0.15    0.00    3.5    7.2   23.8   19.6    0.00    0.00    0.00
 2002 294    56    53    174    1.70    0.00    1.07    0.36    0.05    0.00    3.5    7.2   12.1   10.0    0.00    0.00    0.00
 2002 295    57    54    191    2.76    0.00    1.73    0.58    0.09    0.00    3.5    7.3   16.8   11.9    0.00    0.00    0.00
 2002 296    58    55    213    3.68    0.01    2.29    0.77    0.17    0.00    3.6    7.3   20.6   14.9    0.00    0.00    0.00
 2002 297    59    56    244    5.27    0.02    3.19    1.08    0.38    0.00    3.6    7.3   24.8   21.4    0.00    0.00    0.00
 2002 298    60    57    265    3.54    0.02    2.15    0.73    0.25    0.00    3.6    7.3   21.6   19.2    0.00    0.00    0.00
 2002 299    61    58    308    6.70    0.02    4.55    1.21    0.51    0.00    3.6    7.3   26.1   22.2    0.00    0.00    0.00
 2002 300    62    59    325    3.75    0.02    1.54    0.90    0.35    0.00    3.5    7.2   23.8   21.8    0.00    0.00    0.00
 2002 301    63    60    369    7.12    0.03    4.69    1.30    0.57    0.03    3.6    7.4   25.6   22.3    0.00    0.00    0.00
 2002 302    64    61    391    4.38    0.02    1.91    1.06    0.22    0.02    3.6    7.5   17.2   14.9    0.00    0.00    0.00
 2002 303    65    62    411    3.66    0.02    2.01    0.78    0.21    0.03    3.6    7.6   18.4   14.9    0.00    0.00    0.00
 2002 304    66    63    468    9.46    0.02    5.64    1.91    0.50    0.11    3.8    8.1   21.5   17.6    0.00    0.00    0.00
 2002 305    67    64    529   10.16    0.03    6.02    2.06    0.56    0.15    4.0    8.6   21.6   17.8    0.00    0.00    0.00
 2002 306    68    65    596   11.54    0.04    6.73    2.31    0.78    0.21    4.2    9.2   23.8   20.2    0.00    0.00    0.00
 2002 307    69    66    620    4.39    0.03    2.51    0.88    0.29    0.09    4.3    9.4   16.9   15.5    0.00    0.00    0.00
 2002 308    70    67    657    6.25    0.03    3.67    1.24    0.28    0.14    4.4    9.7   15.2   13.2    0.00    0.00    0.00
 2002 309    71    68    716    9.79    0.03    5.78    1.92    0.39    0.25    4.6   10.2   17.5   13.3    0.00    0.00    0.00
 2002 310    72    69    787   11.91    0.04    6.94    2.36    0.57    0.33    4.8   10.8   19.8   15.2    0.00    0.00    0.00
 2002 311    73    70    876   15.28    0.07    8.69    2.99    1.00    0.46    5.0   11.4   24.0   19.1    0.00    0.00    0.00
 2002 312    74    71    970   16.76    0.10    9.29    3.25    1.33    0.56    5.3   12.1   26.3   21.5    0.00    0.00    0.00
 2002 313    75    72   1015    8.49    0.09    4.54    1.69    0.69    0.30    5.3   12.3   20.0   18.5    0.00    0.00    0.00
 2002 314    76    73   1073   10.32    0.06    5.75    2.08    0.52    0.40    5.5   12.7   16.7   14.3    0.00    0.00    0.00
 2002 315    77    74   1113    7.81    0.10    4.15    1.54    0.66    0.31    5.6   12.9   21.3   17.6    0.00    0.00    0.00
 2002 316    78    75   1231   20.28    0.12   11.59    3.94    1.34    0.95    5.9   13.7   24.9   18.7    0.00    0.00    0.00
 2002 317    79    76   1352   21.40    0.17   11.56    4.21    1.82    1.02    6.1   14.4   27.9   21.6    0.00    0.00    0.00
 2002 318    80    77   1458   19.59    0.22   10.44    3.80    2.02    0.98    6.3   15.0   28.2   23.7    0.00    0.00    0.00
 2002 319    81    78   1545   16.66    0.23    8.75    3.34    1.65    0.87    6.5   15.4   24.1   22.2    0.00    0.00    0.00
 2002 320    82    79   1675   24.32    0.28   12.72    4.88    2.53    1.34    6.7   16.0   28.7   24.2    0.00    0.00    0.00
 2002 321    83    80   1735   13.26    0.32    6.50    2.70    1.80    0.63    6.8   16.1   26.6   24.0    0.00    0.00    0.00
 2002 322    84    81   1873   25.61    0.33   14.34    4.71    2.64    1.65    7.2   16.9   27.3   23.9    0.00    0.00    0.00
 2002 323    85    82   1988   20.92    0.32   11.34    4.05    2.03    1.31    7.3   17.3   26.0   21.5    0.00    0.00    0.00
 2002 324    86    83   2052   13.20    0.36    6.15    2.84    1.63    0.56    7.3   17.3   23.6   21.6    0.00    0.00    0.00
 2002 325    87    84   2185   23.08    0.32   13.54    4.14    1.88    1.66    7.6   18.0   22.8   19.6    0.00    0.00    0.00
 2002 326    88    85   2343   25.86    0.23   15.06    4.34    1.85    2.08    8.0   18.8   22.8   18.1    0.00    0.00    0.00
 2002 327    89    86   2512   28.11    0.00   14.44    4.06    3.05    3.89    8.8   21.1   28.8   23.1    0.00    0.00    0.00
 2002 328    90    87   2648   22.67    0.00    7.60    1.76    3.23    7.98   10.7   26.1   28.1   25.6    0.00    0.00    0.00
 2002 329    91    88   2713   13.41    0.00    7.23    1.85    1.99    0.83   10.9   26.4   23.8   21.8    0.00    0.00    0.00
 2002 330    92    89   2874   26.09    0.00    9.57    2.41    3.11    8.18   12.7   30.8   27.0   23.5    0.00    0.00    0.00
 2002 331    93    90   2961   17.85    1.01   10.36    2.87    2.81    1.03   12.6   30.5   27.8   24.0    0.00    0.00    0.00
 2002 332    94    91   3015   11.75    0.60    6.73    2.27    1.32    0.28   12.6   30.3   18.4   16.9    0.00    0.00    0.00
 2002 333    95    92   3070   13.10    0.81    7.36    2.55    1.89    0.31   12.5   30.0   22.7   20.3    0.00    0.00    0.00
 2002 334    96    93   3217   25.45    0.00    7.71    2.18    3.42    9.39   14.4   34.6   27.4   24.1    0.00    0.00    0.00
 2002 335    97    94   3255   10.44    0.92    6.31    1.89    1.55    0.00   14.3   34.3   19.6   18.4    6.21   18.44   34.27
 2002 336    98    95   3413   26.96    0.00    9.15    2.56    2.48    9.60   16.1   38.5   22.8   19.3    6.19   18.76   34.03
 2002 337    99    96   3535   22.69    0.00    9.56    2.75    2.70    5.11   17.0   40.5   25.0   20.8    6.19   19.52   33.30
 2002 338   100    97   3560   13.10    1.37    7.56    2.63    1.94    0.12   16.9   40.1   20.6   19.4    6.18   19.34   33.50
 2002 339   101    98   3666   21.16    0.00    9.56    2.97    3.36    2.83   17.4   41.1   26.7   23.9    6.27   19.88   32.46
 2002 340   102    99   3688   14.55    1.82    8.16    2.95    2.75    0.08   17.2   40.5   25.0   22.8    6.27   20.06   32.26
 2002 341   103   100   3750   18.50    0.65   10.13    3.40    2.39    0.79   17.3   40.5   23.3   19.9    6.24   19.87   32.62
 2002 342   104   101   3860   22.25    0.00    9.56    3.36    2.04    4.47   18.1   42.2   21.1   17.1    6.25   19.19   33.25
 2002 343   105   102   4007   26.78    0.00   11.99    4.28    2.97    4.34   18.8   43.6   23.8   20.4    6.23   19.32   33.23
 2002 344   106   103   4043   16.25    1.84    9.13    3.84    2.31    0.07   18.6   43.1   22.0   19.6    6.22   19.30   33.31
 2002 345   107   104   4162   27.87    0.00   12.31    4.51    3.86    3.98   19.3   44.3   26.4   23.2    6.24   19.53   32.99
 2002 346   108   105   4242   24.92    2.20   14.25    5.32    3.26    1.07   19.1   43.7   24.6   21.4    6.23   19.64   32.92
 2002 347   109   106   4305   20.92    2.18   11.35    5.10    2.98    0.15   18.8   43.1   23.9   21.1    6.22   19.70   32.90
 2002 348   110   107   4377   23.30    2.48   12.30    5.41    3.98    0.46   18.5   42.4   27.7   24.0    6.25   19.83   32.63
 2002 349   111   108   4414   22.69    2.55   11.58    5.35    4.20    0.37   18.3   41.6   28.3   24.8    6.27   19.92   32.37
 2002 350   112   109   4500   26.88    1.48   14.19    5.53    4.14    1.09   18.2   41.4   26.8   23.7    6.28   20.00   32.23
 2002 351   113   110   4543   25.19    2.29   12.79    6.32    3.54    0.37   17.9   40.7   25.1   21.8    6.27   20.03   32.26
 2002 352   114   111   4614   27.45    2.18   14.33    6.69    3.51    0.74   17.7   40.1   26.0   20.9    6.26   20.02   32.34
 2002 353   115   112   4623   10.75    1.95    6.29    2.89    2.09    0.00   17.5   39.5   20.5   18.5    6.25   19.82   32.58
 2002 354   116   113   4674   23.12    2.14   11.74    6.09    3.18    0.00   17.2   38.8   23.8   20.7    6.25   19.83   32.64
 2002 355   117   114   4743   26.57    2.12   13.81    6.64    3.44    0.47   17.0   38.2   25.4   20.7    6.24   19.83   32.68
 2002 356   118   115   4745   12.71    2.39    6.96    3.14    3.49    0.00   16.7   37.4   27.5   23.8    6.25   19.90   32.53
 2002 357   119   116   4775   10.65    1.58    6.35    2.92    1.52    0.00   16.5   36.9   17.4   15.0    6.27   19.46   32.84
 2002 358   120   117   4821   20.79    1.79   11.01    5.45    2.40    0.00   16.3   36.3   21.7   17.5    6.27   19.31   33.01
 2002 359   121   118   4902   26.08    1.97   13.89    6.26    3.29    0.60   16.1   35.7   25.2   19.8    6.26   19.31   33.05
 2002 360   122   119   4962   26.00    2.19   13.06    6.49    4.24    0.19   15.8   35.0   28.2   23.0    6.26   19.41   32.94
 2002 361   123   120   4989   25.64    2.30   12.32    6.23    5.30    0.14   15.5   34.2   31.8   25.9    6.29   19.50   32.72
 2002 362   124   121   4975   11.72    2.17    6.25    2.97    3.65    0.02   15.2   33.4   26.4   24.3    6.31   19.56   32.52
 2002 363   125   122   4931   11.61    2.14    6.23    2.85    3.78    0.02   14.9   32.6   27.6   24.8    6.33   19.61   32.34
 2002 364   126   123   4946   16.64    2.05    8.50    4.38    3.75    0.00   14.6   31.8   26.9   23.5    6.33   19.68   32.27
 2002 365   127   124   4955   12.94    1.71    6.93    3.44    2.98    0.04   14.4   31.2   23.8   21.5    6.34   19.68   32.22
 2003 001   128   125   4971   18.67    1.86    9.54    5.04    3.52    0.00   14.2   30.4   25.1   22.3    6.33   19.73   32.21
 2003 002   129   126   5004   20.51    1.78   10.19    5.62    3.52    0.00   13.9   29.7   25.0   21.9    6.32   19.77   32.22
 2003 003   130   127   5012   11.64    1.62    6.32    3.00    2.91    0.02   13.6   29.0   24.1   21.4    6.32   19.77   32.21
 2003 004   131   128   5054   22.96    1.79   10.68    6.23    4.40    0.00   13.4   28.2   28.1   24.1    6.33   19.82   32.14
 2003 005   132   129   5096   22.04    1.71   10.23    5.95    4.39    0.00   13.1   27.4   29.3   24.0    6.33   19.87   32.08
 2003 006   133   130   5141   22.40    1.59   10.61    6.33    3.73    0.00   12.8   26.6   25.8   21.9    6.32   19.89   32.10
 2003 007   134   131   5193   22.16    1.54   10.33    6.23    3.88    0.00   12.5   25.9   27.7   22.3    6.32   19.92   32.09
 2003 008   135   132   5252   21.37    1.33    9.86    6.09    3.97    0.05   12.3   25.2   28.5   22.8    6.33   19.93   32.02
 2003 009   136   133   5299   19.43    1.30    8.67    5.25    4.35    0.08   12.0   24.6   28.6   25.0    6.35   19.92   31.88
 2003 010   137   134   5304   11.69    1.45    5.71    2.77    3.58    0.02   11.8   23.9   26.9   24.3    6.36   19.93   31.83
 2003 011   138   135   5349   18.02    1.16    8.05    4.92    3.89    0.08   11.5   23.3   28.3   23.9    6.38   19.92   31.73
 2003 012   139   136   5405   20.15    1.11    9.04    5.72    3.80    0.08   11.3   22.7   28.0   23.1    6.39   19.91   31.67
 2003 013   140   137   5463   19.56    1.01    8.88    5.63    3.36    0.08   11.1   22.2   27.3   21.5    6.39   19.89   31.64
 2003 014   141   138   5517   19.09    1.05    8.35    5.33    3.91    0.08   10.9   21.7   29.2   23.8    6.41   19.88   31.57
 2003 015   142   139   5565   17.71    1.04    7.49    4.77    4.18    0.09   10.7   21.1   29.9   25.3    6.42   19.87   31.47
 2003 016   143   140   5610   17.41    1.07    7.28    4.65    4.35    0.08   10.5   20.5   30.2   26.1    6.44   19.87   31.37
 2003 017   144   141   5653   16.83    1.09    6.94    4.44    4.56    0.06   10.2   19.9   31.8   26.9    6.46   19.87   31.28
 2003 018   145   142   5728   16.68    0.00    6.01    2.02    3.26    3.03   11.1   22.0   26.2   22.5    6.37   20.04   31.63
 2003 019   146   143   5616   15.39    1.29    7.47    3.21    3.56    0.00   10.6   20.7   29.6   23.5    6.30   20.21   31.93
 2003 020   147   144   5518   11.00    1.14    5.23    2.07    3.11    0.00   10.1   19.5   26.7   23.8    6.25   20.31   32.12
 2003 021   148   145   5448   10.42    0.61    4.64    1.69    3.04    0.11    9.9   18.7   28.3   23.8    6.20   20.42   32.32
 2003 022   149   146   5369    5.88    0.90    2.42    0.94    2.96    0.00    9.4   17.7   29.1   25.3    6.20   20.44   32.33
 2003 023   150   147   5316    6.36    0.74    2.79    1.29    2.30    0.00    9.0   16.7   25.4   22.1    6.19   20.45   32.37
 2003 024   151   148   5274    5.07    0.62    2.27    0.95    1.88    0.00    8.6   15.9   25.6   19.8    6.18   20.46   32.42
 2003 025   152   149   5228    3.76    0.62    1.43    0.54    2.28    0.00    8.2   15.1   27.9   23.1    6.18   20.46   32.41
 2003 026   153   150   5189    3.02    0.55    1.08    0.35    2.13    0.00    7.8   14.4   28.0   22.5    6.18   20.46   32.41
 2003 027   154   151   5154    2.22    0.50    0.57    0.16    2.01    0.00    7.5   13.7   27.9   22.1    6.18   20.46   32.41
 2003 028   155   152   5122    1.80    0.48    0.05    0.01    2.22    0.00    7.1   13.1   29.6   23.8    6.18   20.46   32.41
 2003 029   156   153   5093    1.42    0.46    0.00    0.00    2.37    0.00    6.7   12.4   30.1   25.2    6.18   20.46   32.41
 2003 030   157   154   5068    1.20    0.44    0.00    0.00    2.70    0.00    6.3   11.8   32.9   27.2    6.18   20.46   32.41

*DSSAT Cropping System Model Ver. 4.0.2.000               Aug 29, 2016; 11:26:28

*RUN   4        : UYSB                    
 MODEL          : CRGRO040 - Soybean         
 EXPERIMENT     : UYSB0414 SB    late to create DSS                             
 TREATMENT  1   : UYSB                    

@YEAR DOY   DAS   DAP   TWAD    PHAD    CMAD    CGRD    GRAD    MRAD    CHAD   CL%D   CS%D   TGNN   TGAV    GN%D    GL%D    GC%D
 2003 241     3     0      0    0.00    0.00    0.00    0.00    0.00    0.00    0.0    0.0   11.0    8.0    0.00    0.00    0.00
 2003 242     4     1      0    0.00    0.00    0.00    0.00    0.00    0.00    0.0    0.0   12.6    9.5    0.00    0.00    0.00
 2003 243     5     2      0    0.00    0.00    0.00    0.00    0.00    0.00    0.0    0.0   13.9   10.1    0.00    0.00    0.00
 2003 244     6     3      0    0.00    0.00    0.00    0.00    0.00    0.00    0.0    0.0   17.0   12.5    0.00    0.00    0.00
 2003 245     7     4      0    0.00    0.00    0.00    0.00    0.00    0.00    0.0    0.0   17.5   10.8    0.00    0.00    0.00
 2003 246     8     5      0    0.00    0.00    0.00    0.00    0.00    0.00    0.0    0.0   21.6   15.2    0.00    0.00    0.00
 2003 247     9     6      0    0.00    0.00    0.00    0.00    0.00    0.00    0.0    0.0   21.1   18.3    0.00    0.00    0.00
 2003 248    10     7      0    0.00    0.00    0.00    0.00    0.00    0.00    0.0    0.0   24.5   20.4    0.00    0.00    0.00
 2003 249    11     8      0    0.00    0.00    0.00    0.00    0.00    0.00    0.0    0.0   30.0   25.2    0.00    0.00    0.00
 2003 250    12     9      0    0.00    0.00    0.00    0.00    0.00    0.00    0.0    0.0   21.0   18.0    0.00    0.00    0.00
 2003 251    13    10      0    0.00    0.00    0.00    0.00    0.00    0.00    0.0    0.0   14.1   11.9    0.00    0.00    0.00
 2003 252    14    11      7    0.00    0.00    0.00    0.00    0.00    0.00    4.0    8.0   12.0    8.9    0.00    0.00    0.00
 2003 253    15    12      8    0.06    0.00    0.04    0.01    0.00    0.00    4.0    8.0   12.3    8.2    0.00    0.00    0.00
 2003 254    16    13      8    0.07    0.00    0.05    0.02    0.00    0.00    4.0    7.9   15.2    9.3    0.00    0.00    0.00
 2003 255    17    14      9    0.10    0.00    0.07    0.02    0.00    0.00    3.9    7.9   18.4   11.9    0.00    0.00    0.00
 2003 256    18    15      9    0.07    0.00    0.05    0.02    0.00    0.00    3.9    7.9   12.7    9.9    0.00    0.00    0.00
 2003 257    19    16      9    0.06    0.00    0.04    0.01    0.00    0.00    3.9    7.9   11.7    7.2    0.00    0.00    0.00
 2003 258    20    17     10    0.08    0.00    0.05    0.02    0.00    0.00    3.9    7.8   13.6    9.2    0.00    0.00    0.00
 2003 259    21    18     10    0.08    0.00    0.05    0.02    0.00    0.00    3.9    7.8   13.6   10.0    0.00    0.00    0.00
 2003 260    22    19     11    0.09    0.00    0.06    0.02    0.00    0.00    3.9    7.8   14.7   10.3    0.00    0.00    0.00
 2003 261    23    20     12    0.13    0.00    0.09    0.03    0.01    0.00    3.9    7.8   19.0   13.1    0.00    0.00    0.00
 2003 262    24    21     12    0.09    0.00    0.06    0.02    0.01    0.00    3.8    7.7   23.1   17.8    0.00    0.00    0.00
 2003 263    25    22     13    0.13    0.00    0.09    0.03    0.01    0.00    3.8    7.7   16.7   11.6    0.00    0.00    0.00
 2003 264    26    23     14    0.13    0.00    0.09    0.03    0.01    0.00    3.8    7.6   19.8   15.2    0.00    0.00    0.00
 2003 265    27    24     15    0.15    0.00    0.10    0.03    0.01    0.00    3.7    7.5   22.7   19.8    0.00    0.00    0.00
 2003 266    28    25     15    0.11    0.00    0.07    0.02    0.01    0.00    3.7    7.5   19.1   17.0    0.00    0.00    0.00
 2003 267    29    26     16    0.16    0.00    0.11    0.03    0.01    0.00    3.7    7.5   18.3   15.2    0.00    0.00    0.00
 2003 268    30    27     17    0.16    0.00    0.10    0.03    0.01    0.00    3.7    7.4   17.3   13.3    0.00    0.00    0.00
 2003 269    31    28     18    0.13    0.00    0.08    0.03    0.01    0.00    3.7    7.4   17.5   14.2    0.00    0.00    0.00
 2003 270    32    29     20    0.22    0.00    0.14    0.04    0.01    0.00    3.6    7.4   21.7   17.7    0.00    0.00    0.00
 2003 271    33    30     20    0.14    0.00    0.09    0.03    0.01    0.00    3.6    7.4   14.7   11.1    0.00    0.00    0.00
 2003 272    34    31     22    0.17    0.00    0.12    0.04    0.01    0.00    3.6    7.4   15.4    9.8    0.00    0.00    0.00
 2003 273    35    32     23    0.27    0.00    0.17    0.06    0.01    0.00    3.6    7.4   19.8   14.9    0.00    0.00    0.00
 2003 274    36    33     25    0.33    0.00    0.20    0.07    0.02    0.00    3.6    7.3   24.3   18.4    0.00    0.00    0.00
 2003 275    37    34     27    0.27    0.00    0.17    0.06    0.02    0.00    3.6    7.3   21.3   17.6    0.00    0.00    0.00
 2003 276    38    35     28    0.17    0.00    0.10    0.04    0.01    0.00    3.6    7.2   19.7   16.4    0.00    0.00    0.00
 2003 277    39    36     29    0.19    0.00    0.12    0.04    0.02    0.00    3.6    7.2   18.9   17.8    0.00    0.00    0.00
 2003 278    40    37     31    0.35    0.00    0.22    0.07    0.03    0.00    3.5    7.2   22.5   19.5    0.00    0.00    0.00
 2003 279    41    38     34    0.48    0.00    0.30    0.11    0.03    0.00    3.6    7.2   19.3   16.3    0.00    0.00    0.00
 2003 280    42    39     37    0.62    0.00    0.39    0.14    0.04    0.00    3.6    7.2   22.1   17.5    0.00    0.00    0.00
 2003 281    43    40     40    0.46    0.00    0.28    0.10    0.04    0.00    3.5    7.2   25.2   21.2    0.00    0.00    0.00
 2003 282    44    41     45    0.81    0.00    0.51    0.17    0.05    0.00    3.5    7.2   21.8   18.2    0.00    0.00    0.00
 2003 283    45    42     47    0.33    0.00    0.21    0.08    0.01    0.00    3.6    7.2   12.6   10.4    0.00    0.00    0.00
 2003 284    46    43     50    0.49    0.00    0.31    0.11    0.01    0.00    3.6    7.3   13.4    9.4    0.00    0.00    0.00
 2003 285    47    44     54    0.53    0.00    0.34    0.12    0.02    0.00    3.6    7.3   14.3    9.6    0.00    0.00    0.00
 2003 286    48    45     58    0.73    0.00    0.47    0.15    0.03    0.00    3.6    7.4   17.7   12.0    0.00    0.00    0.00
 2003 287    49    46     65    1.05    0.00    0.67    0.21    0.06    0.00    3.6    7.4   22.2   16.2    0.00    0.00    0.00
 2003 288    50    47     73    1.29    0.00    0.80    0.28    0.08    0.00    3.6    7.4   24.2   19.0    0.00    0.00    0.00
 2003 289    51    48     81    1.51    0.01    0.92    0.32    0.12    0.00    3.6    7.4   28.0   21.6    0.00    0.00    0.00
 2003 290    52    49     91    1.55    0.01    0.95    0.32    0.14    0.00    3.6    7.3   28.2   23.2    0.00    0.00    0.00
 2003 291    53    50     99    1.56    0.01    0.93    0.31    0.18    0.00    3.5    7.3   30.8   25.8    0.00    0.00    0.00
 2003 292    54    51    111    1.85    0.01    1.17    0.38    0.12    0.00    3.5    7.3   22.5   19.1    0.00    0.00    0.00
 2003 293    55    52    117    1.05    0.01    0.65    0.23    0.07    0.00    3.5    7.3   19.7   16.1    0.00    0.00    0.00
 2003 294    56    53    130    2.17    0.01    1.37    0.46    0.12    0.00    3.5    7.3   21.8   17.7    0.00    0.00    0.00
 2003 295    57    54    145    2.34    0.01    1.49    0.49    0.13    0.00    3.5    7.3   21.9   16.5    0.00    0.00    0.00
 2003 296    58    55    163    2.93    0.01    1.85    0.60    0.19    0.00    3.5    7.4   24.8   19.0    0.00    0.00    0.00
 2003 297    59    56    180    2.92    0.01    1.78    0.58    0.28    0.00    3.5    7.3   29.4   23.3    0.00    0.00    0.00
 2003 298    60    57    191    2.03    0.01    1.19    0.43    0.20    0.00    3.5    7.2   24.1   22.0    0.00    0.00    0.00
 2003 299    61    58    212    3.50    0.01    2.12    0.77    0.25    0.00    3.5    7.2   24.2   20.2    0.00    0.00    0.00
 2003 300    62    59    232    3.33    0.01    2.07    0.75    0.15    0.00    3.5    7.2   19.0   14.5    0.00    0.00    0.00
 2003 301    63    60    257    4.19    0.01    2.58    0.94    0.22    0.00    3.6    7.3   21.6   16.3    0.00    0.00    0.00
 2003 302    64    61    289    5.30    0.02    3.24    1.18    0.33    0.00    3.6    7.3   24.1   18.5    0.00    0.00    0.00
 2003 303    65    62    325    6.23    0.02    3.70    1.35    0.57    0.00    3.6    7.2   29.1   23.5    0.00    0.00    0.00
 2003 304    66    63    342    2.88    0.01    1.77    0.65    0.18    0.00    3.6    7.2   18.7   15.7    0.00    0.00    0.00
 2003 305    67    64    372    4.89    0.01    3.06    1.12    0.20    0.00    3.6    7.2   17.1   13.3    0.00    0.00    0.00
 2003 306    68    65    404    5.08    0.01    3.18    1.16    0.20    0.00    3.6    7.2   17.8   12.2    0.00    0.00    0.00
 2003 307    69    66    439    5.81    0.01    3.63    1.32    0.24    0.00    3.6    7.3   18.9   13.1    0.00    0.00    0.00
 2003 308    70    67    481    6.89    0.02    4.26    1.55    0.36    0.00    3.6    7.3   20.5   15.9    0.00    0.00    0.00
 2003 309    71    68    535    8.91    0.03    5.47    1.99    0.53    0.00    3.6    7.3   22.7   17.8    0.00    0.00    0.00
 2003 310    72    69    596   10.23    0.04    6.22    2.26    0.72    0.00    3.6    7.2   24.7   20.0    0.00    0.00    0.00
 2003 311    73    70    663   11.47    0.05    6.92    2.52    0.89    0.00    3.6    7.2   26.0   21.3    0.00    0.00    0.00
 2003 312    74    71    730   11.61    0.05    6.93    2.52    1.02    0.00    3.6    7.2   27.6   22.3    0.00    0.00    0.00
 2003 313    75    72    794   11.22    0.07    6.60    2.40    1.14    0.01    3.6    7.2   28.0   23.8    0.00    0.00    0.00
 2003 314    76    73    889   16.36    0.07    9.70    3.54    1.41    0.08    3.6    7.4   28.2   22.7    0.00    0.00    0.00
 2003 315    77    74    985   16.95    0.08    9.77    3.53    1.81    0.14    3.7    7.6   31.4   25.2    0.00    0.00    0.00
 2003 316    78    75   1039    9.43    0.06    5.65    2.05    0.65    0.11    3.8    7.8   19.3   17.1    0.00    0.00    0.00
 2003 317    79    76   1123   14.09    0.05    8.54    3.11    0.71    0.20    3.9    8.1   18.4   15.4    0.00    0.00    0.00
 2003 318    80    77   1226   17.13    0.06   10.38    3.78    0.88    0.28    4.0    8.5   20.7   15.5    0.00    0.00    0.00
 2003 319    81    78   1354   22.04    0.10   12.80    4.73    1.71    0.42    4.2    9.0   26.8   20.5    0.00    0.00    0.00
 2003 320    82    79   1406   10.14    0.11    5.68    2.14    1.01    0.22    4.2    9.1   21.3   19.8    0.00    0.00    0.00
 2003 321    83    80   1501   17.20    0.14    9.71    3.59    1.58    0.43    4.4    9.5   25.2   21.5    0.00    0.00    0.00
 2003 322    84    81   1559   10.67    0.09    6.08    2.27    0.74    0.30    4.4    9.7   17.4   15.7    0.00    0.00    0.00
 2003 323    85    82   1704   25.25    0.14   14.42    5.26    1.81    0.79    4.7   10.4   23.9   19.7    0.00    0.00    0.00
 2003 324    86    83   1828   21.37    0.11   12.25    4.57    1.15    0.72    4.9   10.9   19.0   15.7    0.00    0.00    0.00
 2003 325    87    84   1984   27.30    0.15   15.35    5.85    1.77    0.98    5.1   11.5   23.5   17.8    0.00    0.00    0.00
 2003 326    88    85   2144   29.86    0.26   16.01    6.13    3.28    1.13    5.3   12.0   30.7   24.4    0.00    0.00    0.00
 2003 327    89    86   2296   29.81    0.33   15.58    6.00    3.90    1.22    5.5   12.5   32.1   26.7    0.00    0.00    0.00
 2003 328    90    87   2348   11.76    0.21    5.93    2.58    1.17    0.47    5.5   12.7   18.9   17.4    0.00    0.00    0.00
 2003 329    91    88   2522   31.53    0.29   17.19    6.77    2.65    1.50    5.7   13.3   25.7   20.6    0.00    0.00    0.00
 2003 330    92    89   2640   24.65    0.40   12.49    5.21    3.02    1.13    5.9   13.6   27.9   23.8    0.00    0.00    0.00
 2003 331    93    90   2821   34.16    0.42   18.46    6.79    3.58    1.78    6.1   14.2   27.6   23.4    0.00    0.00    0.00
 2003 332    94    91   2946   24.44    0.41   12.61    5.10    2.61    1.20    6.2   14.4   25.8   21.2    0.00    0.00    0.00
 2003 333    95    92   3139   35.97    0.44   19.35    7.38    3.45    2.04    6.4   15.0   27.1   21.6    0.00    0.00    0.00
 2003 334    96    93   3227   18.64    0.42    9.34    4.09    2.04    0.83    6.5   15.1   21.4   19.4    0.00    0.00    0.00
 2003 335    97    94   3418   35.69    0.50   19.97    7.16    3.35    2.23    6.7   15.7   24.8   21.2    0.00    0.00    0.00
 2003 336    98    95   3594   31.85    0.48   17.29    6.71    2.86    1.93    6.9   16.2   24.0   19.5    0.00    0.00    0.00
 2003 337    99    96   3780   34.00    0.61   19.40    6.32    3.70    2.27    7.1   16.6   27.0   21.9    0.00    0.00    0.00
 2003 338   100    97   3910   25.49    0.69   14.54    4.52    3.40    1.56    7.2   16.9   26.3   22.4    0.00    0.00    0.00
 2003 339   101    98   4152   37.05    0.00   15.08    4.04    3.17   11.08    8.9   21.4   23.3   19.1    0.00    0.00    0.00
 2003 340   102    99   4383   34.46    0.00   12.53    3.31    2.80   12.30   10.6   26.0   23.2   17.4    0.00    0.00    0.00
 2003 341   103   100   4556   28.77    0.00   11.83    3.14    3.34    7.68   11.6   28.6   25.3   20.3    0.00    0.00    0.00
 2003 342   104   101   4669   21.29    0.00   11.68    3.44    2.56    1.47   11.8   28.8   22.5   18.5    0.00    0.00    0.00
 2003 343   105   102   4860   31.16    0.00   15.14    4.46    2.56    5.69   12.4   30.3   20.6   16.7    0.00    0.00    0.00
 2003 344   106   103   5105   37.20    0.00   12.12    3.31    3.66   14.30   14.1   34.5   25.3   18.9    0.00    0.00    0.00
 2003 345   107   104   5253   27.43    1.48   16.52    4.86    3.36    1.87   14.0   34.1   24.8   19.4    0.00    0.00    0.00
 2003 346   108   105   5451   31.41    0.00   12.48    3.64    2.87    9.04   14.9   36.4   22.0   16.9    0.00    0.00    0.00
 2003 347   109   106   5609   29.16    0.00   15.47    4.66    3.46    2.56   15.1   36.7   23.2   19.3    0.00    0.00    0.00
 2003 348   110   107   5805   36.40    2.02   21.29    6.28    4.70    2.82   15.0   36.2   25.9   21.7    0.00    0.00    0.00
 2003 349   111   108   5882   18.48    1.31   10.82    3.11    3.13    0.80   15.0   36.0   22.8   19.5    0.00    0.00    0.00
 2003 350   112   109   6023   29.58    1.38   18.00    5.27    2.70    2.20   15.0   35.8   19.8   16.1    0.00    0.00    0.00
 2003 351   113   110   6188   33.63    1.61   19.80    6.15    3.29    2.72   14.9   35.5   22.2   17.2    6.27   17.38   34.94
 2003 352   114   111   6361   38.37    1.96   21.64    7.16    4.22    3.16   14.8   35.2   24.7   19.1    6.21   18.40   34.26
 2003 353   115   112   6443   32.08    2.58   17.53    5.96    5.31    2.13   14.7   34.8   27.5   22.9    6.25   19.52   32.93
 2003 354   116   113   6480   21.40    2.46   12.09    4.32    4.13    0.51   14.6   34.3   24.2   21.5    6.23   19.83   32.76
 2003 355   117   114   6616   37.39    2.80   20.45    6.99    6.17    2.46   14.5   33.9   28.3   24.0    6.28   20.07   32.18
 2003 356   118   115   6710   24.35    2.07   13.35    5.05    3.37    0.85   14.4   33.6   22.2   18.2    6.26   19.55   32.82
 2003 357   119   116   6824   33.39    2.01   17.77    6.86    3.57    2.29   14.3   33.4   22.2   17.5    6.26   19.13   33.25
 2003 358   120   117   6943   32.73    2.36   18.11    6.50    4.26    2.12   14.2   33.1   24.1   19.5    6.24   19.14   33.35
 2003 359   121   118   7072   39.33    2.97   20.39    7.67    6.30    2.77   14.1   32.7   27.9   23.4    6.26   19.42   32.97
 2003 360   122   119   7206   36.65    2.96   19.21    7.28    6.01    2.37   14.0   32.3   27.8   22.9    6.26   19.62   32.75
 2003 361   123   120   7184   18.13    2.70   10.47    3.51    4.68    0.09   13.9   31.9   25.6   22.5    6.26   19.75   32.63
 2003 362   124   121   7218   26.73    2.51   13.93    6.32    3.90    0.34   13.7   31.5   21.7   19.2    6.25   19.62   32.83
[...]
 2010 262    24    21     14    0.17    0.00    0.11    0.03    0.01    0.00    3.8    7.6   19.0   13.5    0.00    0.00    0.00
 2010 263    25    22     15    0.20    0.00    0.13    0.04    0.01    0.00    3.7    7.6   22.5   15.5    0.00    0.00    0.00
 2010 264    26    23     16    0.17    0.00    0.11    0.03    0.01    0.00    3.7    7.5   22.6   17.8    0.00    0.00    0.00
 2010 265    27    24     18    0.23    0.00    0.15    0.04    0.02    0.00    3.7    7.5   23.2   19.6    0.00    0.00    0.00
 2010 266    28    25     18    0.09    0.00    0.05    0.02    0.01    0.00    3.6    7.4   17.5   15.1    0.00    0.00    0.00
 2010 267    29    26     19    0.18    0.00    0.12    0.04    0.01    0.00    3.6    7.4   17.6   12.6    0.00    0.00    0.00
 2010 268    30    27     20    0.11    0.00    0.07    0.02    0.00    0.00    3.6    7.4   14.7    7.9    0.00    0.00    0.00
 2010 269    31    28     21    0.16    0.00    0.11    0.03    0.01    0.00    3.6    7.4   17.4   10.5    0.00    0.00    0.00
 2010 270    32    29     22    0.19    0.00    0.11    0.04    0.01    0.00    3.6    7.4   19.8   15.9    0.00    0.00    0.00
 2010 271    33    30     24    0.32    0.00    0.19    0.07    0.02    0.00    3.6    7.3   23.6   18.3    0.00    0.00    0.00
 2010 272    34    31     25    0.16    0.00    0.09    0.04    0.01    0.00    3.6    7.3   17.5   13.9    0.00    0.00    0.00
 2010 273    35    32     27    0.35    0.00    0.22    0.08    0.02    0.00    3.6    7.3   18.7   14.7    0.00    0.00    0.00
 2010 274    36    33     28    0.28    0.00    0.17    0.06    0.01    0.00    3.6    7.3   15.8   11.2    0.00    0.00    0.00
 2010 275    37    34     30    0.33    0.00    0.21    0.07    0.01    0.00    3.6    7.3   16.2   12.2    0.00    0.00    0.00
 2010 276    38    35     33    0.33    0.00    0.21    0.07    0.01    0.00    3.6    7.3   17.4   10.7    0.00    0.00    0.00
 2010 277    39    36     35    0.43    0.00    0.27    0.09    0.02    0.00    3.6    7.3   19.1   13.1    0.00    0.00    0.00
 2010 278    40    37     38    0.47    0.00    0.30    0.10    0.02    0.00    3.6    7.4   20.5   13.1    0.00    0.00    0.00
 2010 279    41    38     42    0.57    0.00    0.36    0.12    0.03    0.00    3.6    7.4   23.0   16.6    0.00    0.00    0.00
 2010 280    42    39     43    0.28    0.00    0.17    0.07    0.02    0.00    3.6    7.3   17.7   15.1    0.00    0.00    0.00
 2010 281    43    40     47    0.59    0.00    0.37    0.13    0.03    0.00    3.6    7.3   19.3   15.3    0.00    0.00    0.00
 2010 282    44    41     50    0.52    0.00    0.33    0.12    0.03    0.00    3.6    7.3   18.5   14.7    0.00    0.00    0.00
 2010 283    45    42     54    0.64    0.00    0.41    0.14    0.03    0.00    3.6    7.3   17.8   13.1    0.00    0.00    0.00
 2010 284    46    43     58    0.69    0.00    0.44    0.15    0.03    0.00    3.6    7.3   18.6   13.5    0.00    0.00    0.00
 2010 285    47    44     64    0.95    0.00    0.60    0.20    0.05    0.00    3.6    7.4   21.7   16.4    0.00    0.00    0.00
 2010 286    48    45     71    1.12    0.00    0.71    0.23    0.07    0.00    3.6    7.4   24.3   18.6    0.00    0.00    0.00
 2010 287    49    46     74    0.55    0.00    0.33    0.12    0.04    0.00    3.6    7.3   19.9   17.8    0.00    0.00    0.00
 2010 288    50    47     78    0.68    0.00    0.43    0.15    0.03    0.00    3.6    7.3   19.2   11.1    0.00    0.00    0.00
 2010 289    51    48     81    0.52    0.00    0.31    0.12    0.03    0.00    3.6    7.3   17.1   14.7    0.00    0.00    0.00
 2010 290    52    49     88    1.07    0.00    0.68    0.23    0.04    0.00    3.6    7.3   17.6   12.8    0.00    0.00    0.00
 2010 291    53    50     96    1.28    0.00    0.82    0.27    0.06    0.00    3.6    7.3   20.1   13.7    0.00    0.00    0.00
 2010 292    54    51    105    1.43    0.00    0.92    0.30    0.07    0.00    3.6    7.4   21.1   14.3    0.00    0.00    0.00
 2010 293    55    52    116    1.85    0.01    1.17    0.38    0.11    0.00    3.6    7.4   23.5   17.9    0.00    0.00    0.00
 2010 294    56    53    129    2.10    0.01    1.32    0.42    0.15    0.00    3.6    7.4   25.9   19.5    0.00    0.00    0.00
 2010 295    57    54    140    1.90    0.01    1.18    0.39    0.14    0.00    3.5    7.3   23.8   19.8    0.00    0.00    0.00
 2010 296    58    55    153    1.99    0.01    1.26    0.42    0.11    0.00    3.5    7.3   20.3   15.7    0.00    0.00    0.00
 2010 297    59    56    163    1.77    0.01    1.12    0.37    0.10    0.00    3.5    7.3   21.0   15.9    0.00    0.00    0.00
 2010 298    60    57    177    2.20    0.01    1.39    0.46    0.13    0.00    3.5    7.3   20.3   16.6    0.00    0.00    0.00
 2010 299    61    58    191    2.22    0.01    1.43    0.46    0.11    0.00    3.5    7.3   19.8   13.8    0.00    0.00    0.00
 2010 300    62    59    207    2.58    0.01    1.63    0.52    0.17    0.00    3.5    7.3   21.8   17.8    0.00    0.00    0.00
 2010 301    63    60    226    3.23    0.01    1.97    0.72    0.21    0.00    3.5    7.3   23.6   18.1    0.00    0.00    0.00
 2010 302    64    61    234    1.50    0.01    0.91    0.33    0.11    0.00    3.5    7.3   19.2   15.9    0.00    0.00    0.00
 2010 303    65    62    254    3.23    0.01    2.00    0.73    0.16    0.00    3.5    7.3   19.6   15.0    0.00    0.00    0.00
 2010 304    66    63    278    4.03    0.01    2.47    0.91    0.23    0.00    3.6    7.3   22.2   16.7    0.00    0.00    0.00
 2010 305    67    64    306    4.66    0.02    2.85    1.04    0.28    0.00    3.6    7.2   22.9   17.7    0.00    0.00    0.00
 2010 306    68    65    338    5.37    0.02    3.29    1.20    0.33    0.00    3.6    7.2   24.2   17.4    0.00    0.00    0.00
 2010 307    69    66    374    6.26    0.02    3.77    1.38    0.48    0.00    3.6    7.2   27.5   20.4    0.00    0.00    0.00
 2010 308    70    67    409    6.01    0.03    3.57    1.30    0.55    0.00    3.6    7.2   28.7   22.3    0.00    0.00    0.00
 2010 309    71    68    456    7.95    0.03    4.85    1.77    0.53    0.00    3.6    7.2   24.7   19.2    0.00    0.00    0.00
 2010 310    72    69    506    8.30    0.03    5.10    1.86    0.50    0.00    3.6    7.2   23.7   17.5    0.00    0.00    0.00
 2010 311    73    70    564    9.89    0.04    5.90    2.15    0.87    0.00    3.6    7.2   29.7   22.3    0.00    0.00    0.00
 2010 312    74    71    627   11.09    0.05    6.48    2.35    1.19    0.00    3.6    7.2   32.6   25.1    0.00    0.00    0.00
 2010 313    75    72    647    3.44    0.01    2.14    0.78    0.17    0.00    3.6    7.2   13.6   11.2    0.00    0.00    0.00
 2010 314    76    73    702    8.96    0.02    5.60    2.06    0.38    0.00    3.6    7.2   19.2   12.8    0.00    0.00    0.00
 2010 315    77    74    756    8.76    0.02    5.49    2.02    0.36    0.00    3.6    7.2   18.0   12.3    0.00    0.00    0.00
 2010 316    78    75    817    9.89    0.03    6.16    2.26    0.46    0.00    3.6    7.2   18.9   14.0    0.00    0.00    0.00
 2010 317    79    76    889   11.88    0.04    7.37    2.70    0.59    0.00    3.6    7.2   20.3   15.1    0.00    0.00    0.00
 2010 318    80    77    958   11.43    0.05    7.05    2.58    0.66    0.00    3.6    7.2   21.0   16.2    0.00    0.00    0.00
 2010 319    81    78   1035   12.95    0.06    7.91    2.91    0.87    0.00    3.6    7.2   22.0   18.3    0.00    0.00    0.00
 2010 320    82    79   1126   15.22    0.06    9.33    3.43    0.97    0.00    3.6    7.2   21.5   18.1    0.00    0.00    0.00
 2010 321    83    80   1226   16.93    0.07   10.37    3.79    1.11    0.00    3.6    7.2   23.0   18.2    0.00    0.00    0.00
 2010 322    84    81   1340   19.22    0.07   11.82    4.31    1.20    0.00    3.6    7.2   23.6   17.4    0.00    0.00    0.00
 2010 323    85    82   1409   12.13    0.08    7.33    2.70    0.96    0.00    3.6    7.1   23.8   17.5    0.00    0.00    0.00
 2010 324    86    83   1522   20.00    0.11   11.93    4.38    1.80    0.01    3.6    7.1   27.2   21.6    0.00    0.00    0.00
 2010 325    87    84   1649   23.06    0.14   13.49    4.97    2.34    0.10    3.6    7.2   26.5   24.0    0.00    0.00    0.00
 2010 326    88    85   1788   24.25    0.12   14.46    5.38    1.90    0.18    3.6    7.4   24.6   20.3    0.00    0.00    0.00
 2010 327    89    86   1906   20.97    0.14   12.52    4.56    1.81    0.22    3.7    7.5   24.3   20.4    0.00    0.00    0.00
 2010 328    90    87   2019   20.65    0.16   11.87    4.51    2.10    0.28    3.8    7.7   26.8   21.9    0.00    0.00    0.00
 2010 329    91    88   2199   31.13    0.15   18.47    6.92    2.28    0.52    3.9    8.1   25.6   19.1    0.00    0.00    0.00
 2010 330    92    89   2383   32.92    0.21   18.98    7.12    3.14    0.65    4.0    8.5   28.5   22.5    0.00    0.00    0.00
 2010 331    93    90   2550   30.90    0.24   17.39    6.53    3.48    0.69    4.2    8.9   30.9   23.7    0.00    0.00    0.00
 2010 332    94    91   2662   20.07    0.17   11.59    4.45    1.52    0.51    4.3    9.1   20.2   17.0    0.00    0.00    0.00
 2010 333    95    92   2789   22.35    0.16   13.00    4.95    1.52    0.62    4.4    9.4   20.9   15.8    0.00    0.00    0.00
 2010 334    96    93   2996   36.06    0.21   20.81    7.88    2.70    1.09    4.5    9.9   26.3   17.9    0.00    0.00    0.00
 2010 335    97    94   3201   37.38    0.32   21.12    7.87    3.85    1.22    4.7   10.3   29.2   22.3    0.00    0.00    0.00
 2010 336    98    95   3392   36.21    0.40   20.57    6.98    4.72    1.31    4.9   10.7   32.1   25.0    0.00    0.00    0.00
 2010 337    99    96   3580   34.50    0.43   19.80    6.74    4.13    1.39    5.0   11.1   28.8   23.6    0.00    0.00    0.00
 2010 338   100    97   3791   37.74    0.40   21.51    7.57    3.86    1.65    5.2   11.6   28.4   21.2    0.00    0.00    0.00
 2010 339   101    98   4021   40.41    0.49   23.87    7.67    4.41    1.90    5.3   12.0   28.4   22.5    0.00    0.00    0.00
 2010 340   102    99   4261   40.51    0.47   24.61    7.50    4.09    2.05    5.5   12.5   28.1   20.7    0.00    0.00    0.00
 2010 341   103   100   4500   41.19    0.48   24.16    7.77    4.50    2.08    5.7   12.9   30.6   20.4    0.00    0.00    0.00
 2010 342   104   101   4678   33.00    0.56   18.61    6.26    3.69    1.72    5.8   13.2   26.9   20.1    0.00    0.00    0.00
 2010 343   105   102   4918   42.52    0.82   25.49    6.89    6.31    2.40    5.9   13.6   30.4   26.0    0.00    0.00    0.00
 2010 344   106   103   5114   37.66    0.66   20.17    7.05    5.25    2.06    6.1   13.9   32.2   22.4    0.00    0.00    0.00
 2010 345   107   104   5265   30.86    0.81   16.91    5.35    4.94    1.70    6.1   14.1   30.1   23.5    0.00    0.00    0.00
 2010 346   108   105   5341   14.80    0.44    8.83    2.61    1.85    0.76    6.2   14.1   19.2   15.0    0.00    0.00    0.00
 2010 347   109   106   5564   35.92    0.48   22.22    6.42    2.91    2.35    6.3   14.5   23.3   15.1    0.00    0.00    0.00
 2010 348   110   107   5829   44.07    0.67   26.47    7.82    4.40    2.90    6.5   15.0   27.1   18.6    0.00    0.00    0.00
 2010 349   111   108   6064   43.91    0.96   24.70    7.72    5.89    2.76    6.6   15.3   29.4   22.8    0.00    0.00    0.00
 2010 350   112   109   6291   44.71    1.06   23.84    8.03    6.32    2.88    6.7   15.6   29.5   23.4    0.00    0.00    0.00
 2010 351   113   110   6513   45.05    1.22   23.79    7.87    7.21    2.93    6.8   15.9   30.5   25.1    0.00    0.00    0.00
 2010 352   114   111   6687   37.44    1.32   20.07    6.19    6.90    2.33    6.9   16.0   30.1   25.5    0.00    0.00    0.00
 2010 353   115   112   6775   20.83    0.31   11.30    3.01    3.95    0.92    7.0   16.1   22.9   20.8    0.00    0.00    0.00
 2010 354   116   113   6926   34.13    1.40   18.47    5.57    6.28    1.95    7.0   16.2   27.1   24.6    0.00    0.00    0.00
 2010 355   117   114   7140   44.22    1.32   23.34    7.74    7.00    2.86    7.1   16.4   29.7   24.0    0.00    0.00    0.00
 2010 356   118   115   7356   45.87    1.47   23.89    7.86    7.97    2.93    7.2   16.7   30.8   25.4    0.00    0.00    0.00
 2010 357   119   116   7574   46.11    1.51   24.12    7.95    7.93    2.90    7.3   16.9   30.4   25.1    0.00    0.00    0.00
 2010 358   120   117   7640   21.62    0.00   10.54    3.08    5.36    0.64    7.4   17.0   25.7   23.3    0.00    0.00    0.00
 2010 359   121   118   7844   45.07    1.68   23.19    7.56    8.54    2.85    7.5   17.2   30.8   26.1    0.00    0.00    0.00
 2010 360   122   119   8036   46.41    1.64   24.15    7.61    8.14    3.17    7.6   17.5   31.0   24.7    0.00    0.00    0.00
 2010 361   123   120   8209   45.71    1.85   23.60    7.50    8.83    3.00    7.6   17.6   31.4   25.9    6.54   20.50   30.15
 2010 362   124   121   8369   46.19    1.71   24.05    8.42    6.97    2.92    7.7   17.8   27.7   22.4    6.33   20.42   31.52
 2010 363   125   122   8530   42.90    1.99   22.71    7.50    7.78    2.51    7.8   17.9   28.3   24.3    6.37   20.47   31.21
 2010 364   126   123   8706   46.46    1.85   24.13    8.77    6.96    2.63    7.8   18.0   27.1   22.1    6.31   20.40   31.65
 2010 365   127   124   8857   45.84    2.11   22.48    8.86    8.10    2.23    7.8   18.0   28.8   24.1    6.34   20.44   31.46
 2011 001   128   125   8963   38.26    2.15   19.40    7.27    7.66    1.19    7.8   17.8   29.2   24.0    6.34   20.46   31.39
 2011 002   129   126   9046   32.79    2.11   17.46    6.54    6.50    0.21    7.7   17.5   25.9   22.6    6.32   20.45   31.54
 2011 003   130   127   9093   21.36    1.65   11.92    3.73    5.25    0.10    7.6   17.3   23.4   21.3    6.29   20.36   31.81
 2011 004   131   128   9160   31.95    2.28   16.16    6.39    7.51    0.00    7.5   16.9   28.5   24.4    6.31   20.39   31.64
 2011 005   132   129   9213   30.63    2.34   16.04    5.62    7.76    0.00    7.4   16.5   28.9   25.0    6.34   20.41   31.46
 2011 006   133   130   9318   45.20    2.29   21.07    9.24    9.08    1.40    7.4   16.4   30.3   25.2    6.36   20.43   31.30
 2011 007   134   131   9379   44.75    2.58   20.70    8.16   11.58    1.53    7.3   16.2   33.1   29.0    6.43   20.44   30.85
 2011 008   135   132   9451   40.54    2.45   19.41    8.33    9.54    0.38    7.2   15.9   30.7   26.4    6.46   20.45   30.67
 2011 009   136   133   9517   41.12    2.48   19.20    8.39   10.14    0.48    7.1   15.6   31.6   27.2    6.49   20.46   30.46
 2011 010   137   134   9533   26.97    2.17   13.83    5.59    6.97    0.00    7.0   15.2   28.9   23.3    6.46   20.46   30.65
 2011 011   138   135   9564   27.59    2.20   13.84    5.99    6.74    0.00    6.9   14.8   25.8   23.2    6.44   20.47   30.81
 2011 012   139   136   9625   34.55    2.21   16.86    7.77    7.54    0.00    6.7   14.4   27.1   23.8    6.42   20.47   30.89
 2011 013   140   137   9714   41.63    2.14   20.36    9.45    7.83    0.00    6.6   14.1   27.4   23.3    6.41   20.47   30.98
 2011 014   141   138   9811   43.08    2.15   21.06    9.85    8.20    0.00    6.5   13.7   27.8   23.7    6.40   20.48   31.02
 2011 015   142   139   9896   43.78    2.21   20.59    9.68    9.84    0.00    6.4   13.3   31.1   25.9    6.42   20.48   30.92
 2011 016   143   140   9937   34.84    2.24   16.20    7.18   10.19    0.00    6.2   12.9   32.6   27.4    6.44   20.48   30.75
 2011 017   144   141   9944   34.59    2.09   16.71    7.80    8.27    0.00    6.1   12.5   28.8   24.5    6.44   20.48   30.77
 2011 018   145   142  10016   40.63    2.00   19.15    9.54    8.94    0.00    6.0   12.1   30.1   24.7    6.44   20.49   30.77
 2011 019   146   143  10097   40.89    1.98   19.11    9.53    9.26    0.00    5.9   11.8   30.5   25.1    6.44   20.49   30.75
 2011 020   147   144  10185   40.96    1.93   19.37    9.75    9.06    0.00    5.8   11.4   29.8   24.8    6.44   20.49   30.75
 2011 021   148   145  10290   40.25    1.71   19.47    9.94    7.35    0.00    5.7   11.1   28.0   21.6    6.42   20.46   30.91
 2011 022   149   146  10366   38.27    1.89   17.80    9.06    9.33    0.00    5.5   10.7   30.0   25.4    6.43   20.46   30.87
 2011 023   150   147  10446   39.64    1.85   18.27    9.40    9.78    0.00    5.4   10.3   30.5   25.8    6.44   20.47   30.81
 2011 024   151   148  10489   35.69    1.91   15.35    7.76   11.71    0.00    5.3    9.9   33.0   29.1    6.46   20.47   30.63
 2011 025   152   149  10542   34.49    1.42   15.41    7.85   10.14    0.11    5.2    9.6   31.1   26.9    6.49   20.43   30.47
 2011 026   153   150  10528   18.59    1.27    8.38    2.59    8.97    0.11    5.1    9.4   33.8   26.4    6.51   20.42   30.41
 2011 027   154   151  10568   31.06    1.50   14.22    6.83    9.62    0.05    5.0    9.1   30.7   26.5    6.52   20.40   30.34
 2011 028   155   152  10637   34.58    1.21   14.97    7.85   10.27    0.13    4.9    8.9   31.4   27.2    6.55   20.37   30.21
 2011 029   156   153  10705   34.04    1.28   15.05    7.94    9.67    0.09    4.9    8.6   30.9   26.5    6.56   20.35   30.13
 2011 030   157   154  10719   19.63    1.47    9.30    3.32    8.14    0.01    4.7    8.2   30.4   25.9    6.56   20.35   30.13
 2011 031   158   155  10712   15.75    1.46    7.49    2.15    7.93    0.00    4.6    7.9   30.6   26.2    6.56   20.36   30.13
 2011 032   159   156  10779   27.58    1.21   12.94    6.41    7.23    0.04    4.5    7.6   26.6   23.7    6.56   20.35   30.16
 2011 033   160   157  10880   33.53    0.79   15.14    8.74    6.79    0.13    4.4    7.5   28.1   21.6    6.56   20.31   30.21
 2011 034   161   158  10960   31.55    0.95   13.28    7.52    8.78    0.10    4.4    7.3   32.2   25.3    6.57   20.30   30.17
 2011 035   162   159  11015   25.29    1.04   10.94    5.51    7.77    0.08    4.3    7.0   29.3   24.9    6.57   20.29   30.15
 2011 036   163   160  11082   29.61    0.94   11.96    6.78    9.21    0.10    4.2    6.8   32.1   26.8    6.58   20.27   30.09
 2011 037   164   161  11135   24.37    1.03   10.35    5.42    7.66    0.06    4.1    6.6   29.0   25.1    6.59   20.26   30.07
 2011 038   165   162  11178   21.83    1.05    9.25    4.65    7.42    0.05    4.0    6.3   28.9   25.0    6.59   20.26   30.07
 2011 039   166   163  11185   12.12    1.05    5.84    1.92    4.97    0.00    3.8    6.0   22.4   21.4    6.58   20.27   30.13
 2011 040   167   164  10793   14.41    0.98    6.85    2.18    4.89    0.00    3.7    5.3   22.1   21.0    6.55   20.31   30.27
 2011 041   168   165  10474   12.56    0.81    5.65    2.03    4.78    0.00    3.5    4.6   23.7   21.4    6.54   20.31   30.32
 2011 042   169   166  10256   17.62    0.60    7.80    2.45    5.54    0.03    3.4    4.1   25.2   23.0    6.48   20.42   30.55
 2011 043   170   167  10060   11.07    0.57    4.60    1.58    4.53    0.00    3.2    3.7   24.7   21.7    6.47   20.43   30.60
 2011 044   171   168   9917   11.74    0.47    4.88    1.59    4.36    0.00    3.1    3.3   25.3   21.3    6.45   20.47   30.72
 2011 045   172   169   9796    9.22    0.40    3.60    1.17    4.00    0.00    2.9    2.9   25.1   20.8    6.44   20.48   30.77
 2011 046   173   170   9693    6.94    0.32    2.74    0.97    3.20    0.00    2.8    2.7   24.5   18.3    6.44   20.47   30.80
 2011 047   174   171   9599    5.52    0.31    1.48    0.43    3.97    0.00    2.6    2.4   26.8   21.6    6.44   20.47   30.80
 2011 048   175   172   9513    4.25    0.29    0.00    0.00    4.93    0.00    2.5    2.2   29.3   25.2    6.44   20.47   30.80
 2011 049   176   173   9442    3.25    0.26    0.00    0.00    4.79    0.00    2.4    2.0   29.3   25.1    6.44   20.47   30.80
 2011 050   177   174   9383    2.68    0.22    0.00    0.00    3.78    0.00    2.2    1.9   25.7   22.3    6.44   20.47   30.80
 2011 051   178   175   9334    1.99    0.20    0.00    0.00    3.70    0.00    2.1    1.7   25.3   22.3    6.44   20.47   30.80
