*PLANT N BALANCE

*DSSAT Cropping System Model Ver. 4.6.1.000 -release      NOV 11, 2016; 09:12:21
                                                                                
*RUN   1        : UYSB                      CRGRO046 UYSB1062    1              
 MODEL          : CRGRO046 - Soybean                                            
 EXPERIMENT     : UYSB1062 SN late to create DSS                                
 DATA PATH      :                                                               
 TREATMENT  1   : UYSB                      CRGRO046                            
                                                                                
                                                                                
 CROP           : Soybean          CULTIVAR : GM 4 URUGUAY     ECOTYPE :INDETE  
 STARTING DATE  : NOV  8 2000                                                   
 PLANTING DATE  : NOV 11 2000        PLANTS/m2 :  7.0     ROW SPACING :  15.cm  
 WEATHER        : UYTA   2000                                                   
 SOIL           : UYSS3P2304     TEXTURE : CL    -  P23-04    SNIA CLAY LOAM    
 SOIL INITIAL C : DEPTH:137cm EXTR. H2O:151.2mm  NO3: 25.0kg/ha  NH4: 29.0kg/ha 
 WATER BALANCE  : AUTOMATIC IRRIGATION - REFILL PROFILE                         
 IRRIGATION     : AUTOMATIC - PLANTING -> MATURITY [ SOIL DEPTH: 0.30m 50.%]    
 NITROGEN BAL.  : SOIL-N, N-UPTAKE & DYNAMIC N-FIXATION SIMULATION              
 N-FERTILIZER   : NO N-FERTILIZER APPLIED                                       
 RESIDUE/MANURE : INITIAL :     0 kg/ha ;       0 kg/ha IN     0 APPLICATIONS   
 ENVIRONM. OPT. : DAYL=    0.00  SRAD=    0.00  TMAX=    0.00  TMIN=    0.00    
                  RAIN=    0.00  CO2 =    0.00  DEW =    0.00  WIND=    0.00    
 SIMULATION OPT : WATER   :Y  NITROGEN:Y  N-FIX:Y  PHOSPH :N  PESTS  :N         
                  PHOTO   :C  ET      :R  INFIL:S  HYDROL :R  SOM    :G         
                  CO2 370ppm  NSWIT   :1  EVAP :S  SOIL   :2  STEMP  :D         
 MANAGEMENT OPT : PLANTING:R  IRRIG   :A  FERT :N  RESIDUE:N  HARVEST:M         
                  WEATHER :M  TILLAGE :N                                        
                                                                                
*SUMMARY OF SOIL AND GENETIC INPUT PARAMETERS                                   
                                                                                
   SOIL LOWER UPPER   SAT  EXTR  INIT   ROOT   BULK     pH    NO3    NH4    ORG 
  DEPTH LIMIT LIMIT    SW    SW    SW   DIST   DENS                          C  
   cm   cm3/cm3    cm3/cm3    cm3/cm3         g/cm3         ugN/g  ugN/g     %  
------------------------------------------------------------------------------- 
  0-  5 0.157 0.286 0.429 0.129 0.195   1.00   1.32   5.50   5.00   1.50   1.68 
  5- 15 0.157 0.286 0.429 0.129 0.195   1.00   1.32   5.50   5.00   1.50   1.68 
 15- 26 0.157 0.286 0.429 0.129 0.195   1.00   1.32   5.50   5.00   1.50   1.68 
 26- 41 0.199 0.320 0.441 0.121 0.235   0.40   1.38   5.90   1.90   1.50   0.96 
 41- 56 0.199 0.320 0.441 0.121 0.235   0.40   1.38   5.90   1.90   1.50   0.96 
 56- 73 0.217 0.320 0.441 0.103 0.320   0.10   1.42   7.70   0.00   1.50   0.40 
 73- 91 0.217 0.320 0.441 0.103 0.320   0.10   1.42   7.70   0.00   1.50   0.40 
 91-108 0.172 0.272 0.423 0.100 0.272   0.10   1.47   7.90   0.00   1.50   0.14 
108-125 0.172 0.272 0.423 0.100 0.272   0.10   1.47   7.90   0.00   1.50   0.14 
125-137 0.099 0.193 0.395 0.094 0.193   0.00   1.49   7.80   0.00   1.50   0.05 
                                                                                
TOT-137  24.7  39.8  58.9  15.1  34.9  <--cm   -  kg/ha-->   25.0   29.0 125173 
SOIL ALBEDO    : 0.12      EVAPORATION LIMIT :10.00         MIN. FACTOR  : 1.00 
RUNOFF CURVE # : 0.75      DRAINAGE RATE     : 0.25         FERT. FACTOR : 1.00 
                                                                                
 Soybean    CULTIVAR :UY0141-GM 4 URUGUAY       ECOTYPE :INDETE                 
 CSDVAR :13.39  PPSEN  : 0.29  EMG-FLW:20.80  FLW-FSD:18.00  FSD-PHM : 36.00    
 WTPSD  :0.200  SDPDVR : 1.70  SDFDUR :26.00  PODDUR :10.00  XFRUIT  :  1.00    
 THRESH : 77.0  SDPRO  :0.405  SDLIP   : 0.205                                  


   PLANT COMPONENT  HARVEST     LOST*   TOTAL  BALANCE
   ---------------  -------- kg[N]/ha -------  -------
   Leaf N              1.18    21.75    22.93
   Stem N              6.94     3.78    10.73
   Shell N            19.60    16.11    35.71
   Seed N            217.10     0.00   217.10
   Root N              6.01     5.65    11.66
   Nodule N            3.11     3.74     6.86
   Total N           253.94    51.04   304.98
   N leakage                            14.05
   TOTAL N                                      319.04


   N INPUTS TO SYSTEM                kg[N]/ha
   ------------------                --------
   Seed N At Planting                    0.68
   N2 Fixed                            207.93
   N Uptake from Soil                  110.43
   TOTAL N                                      319.05

   * Lost due to senescence, freeze, pest or disease damage.

*******************************************************************************

*DSSAT Cropping System Model Ver. 4.6.1.000 -release      NOV 11, 2016; 09:12:21
                                                                                
*RUN   2        : UYSB                      CRGRO046 UYSB1062    1              
 MODEL          : CRGRO046 - Soybean                                            
 EXPERIMENT     : UYSB1062 SN late to create DSS                                
 DATA PATH      :                                                               
 TREATMENT  1   : UYSB                      CRGRO046                            
                                                                                
                                                                                
 CROP           : Soybean          CULTIVAR : GM 4 URUGUAY     ECOTYPE :INDETE  
 STARTING DATE  : NOV  9 2001                                                   
 PLANTING DATE  : NOV 12 2001        PLANTS/m2 :  7.0     ROW SPACING :  15.cm  
 WEATHER        : UYTA0101                                                      
 SOIL           : UYSS3P2304     TEXTURE : CL    -  P23-04    SNIA CLAY LOAM    
 SOIL INITIAL C : DEPTH:137cm EXTR. H2O:151.2mm  NO3: 25.0kg/ha  NH4: 29.0kg/ha 
 WATER BALANCE  : AUTOMATIC IRRIGATION - REFILL PROFILE                         
 IRRIGATION     : AUTOMATIC - PLANTING -> MATURITY [ SOIL DEPTH: 0.30m 50.%]    
 NITROGEN BAL.  : SOIL-N, N-UPTAKE & DYNAMIC N-FIXATION SIMULATION              
 N-FERTILIZER   : NO N-FERTILIZER APPLIED                                       
 RESIDUE/MANURE : INITIAL :     0 kg/ha ;       0 kg/ha IN     0 APPLICATIONS   
 ENVIRONM. OPT. : DAYL=    0.00  SRAD=    0.00  TMAX=    0.00  TMIN=    0.00    
                  RAIN=    0.00  CO2 =    0.00  DEW =    0.00  WIND=    0.00    
 SIMULATION OPT : WATER   :Y  NITROGEN:Y  N-FIX:Y  PHOSPH :N  PESTS  :N         
                  PHOTO   :C  ET      :R  INFIL:S  HYDROL :R  SOM    :G         
                  CO2 372ppm  NSWIT   :1  EVAP :S  SOIL   :2  STEMP  :D         
 MANAGEMENT OPT : PLANTING:R  IRRIG   :A  FERT :N  RESIDUE:N  HARVEST:M         
                  WEATHER :M  TILLAGE :N                                        
                                                                                
*SUMMARY OF SOIL AND GENETIC INPUT PARAMETERS                                   
                                                                                
   SOIL LOWER UPPER   SAT  EXTR  INIT   ROOT   BULK     pH    NO3    NH4    ORG 
  DEPTH LIMIT LIMIT    SW    SW    SW   DIST   DENS                          C  
   cm   cm3/cm3    cm3/cm3    cm3/cm3         g/cm3         ugN/g  ugN/g     %  
------------------------------------------------------------------------------- 
  0-  5 0.157 0.286 0.429 0.129 0.195   1.00   1.32   5.50   5.00   1.50   1.68 
  5- 15 0.157 0.286 0.429 0.129 0.195   1.00   1.32   5.50   5.00   1.50   1.68 
 15- 26 0.157 0.286 0.429 0.129 0.195   1.00   1.32   5.50   5.00   1.50   1.68 
 26- 41 0.199 0.320 0.441 0.121 0.235   0.40   1.38   5.90   1.90   1.50   0.96 
 41- 56 0.199 0.320 0.441 0.121 0.235   0.40   1.38   5.90   1.90   1.50   0.96 
 56- 73 0.217 0.320 0.441 0.103 0.320   0.10   1.42   7.70   0.00   1.50   0.40 
 73- 91 0.217 0.320 0.441 0.103 0.320   0.10   1.42   7.70   0.00   1.50   0.40 
 91-108 0.172 0.272 0.423 0.100 0.272   0.10   1.47   7.90   0.00   1.50   0.14 
108-125 0.172 0.272 0.423 0.100 0.272   0.10   1.47   7.90   0.00   1.50   0.14 
125-137 0.099 0.193 0.395 0.094 0.193   0.00   1.49   7.80   0.00   1.50   0.05 
                                                                                
TOT-137  24.7  39.8  58.9  15.1  34.9  <--cm   -  kg/ha-->   25.0   29.0 125173 
SOIL ALBEDO    : 0.12      EVAPORATION LIMIT :10.00         MIN. FACTOR  : 1.00 
RUNOFF CURVE # : 0.75      DRAINAGE RATE     : 0.25         FERT. FACTOR : 1.00 
                                                                                
 Soybean    CULTIVAR :UY0141-GM 4 URUGUAY       ECOTYPE :INDETE                 
 CSDVAR :13.39  PPSEN  : 0.29  EMG-FLW:20.80  FLW-FSD:18.00  FSD-PHM : 36.00    
 WTPSD  :0.200  SDPDVR : 1.70  SDFDUR :26.00  PODDUR :10.00  XFRUIT  :  1.00    
 THRESH : 77.0  SDPRO  :0.405  SDLIP   : 0.205                                  


   PLANT COMPONENT  HARVEST     LOST*   TOTAL  BALANCE
   ---------------  -------- kg[N]/ha -------  -------
   Leaf N              1.28    23.46    24.74
   Stem N              7.41     4.08    11.49
   Shell N            21.48    19.65    41.13
   Seed N            233.88     0.00   233.88
   Root N              6.76     5.89    12.65
   Nodule N            2.52     3.89     6.42
   Total N           273.33    56.98   330.31
   N leakage                            15.98
   TOTAL N                                      346.29


   N INPUTS TO SYSTEM                kg[N]/ha
   ------------------                --------
   Seed N At Planting                    0.68
   N2 Fixed                            240.30
   N Uptake from Soil                  105.31
   TOTAL N                                      346.29

   * Lost due to senescence, freeze, pest or disease damage.

*******************************************************************************

*DSSAT Cropping System Model Ver. 4.6.1.000 -release      NOV 11, 2016; 09:12:21
                                                                                
*RUN   3        : UYSB                      CRGRO046 UYSB1062    1              
 MODEL          : CRGRO046 - Soybean                                            
 EXPERIMENT     : UYSB1062 SN late to create DSS                                
 DATA PATH      :                                                               
 TREATMENT  1   : UYSB                      CRGRO046                            
                                                                                
                                                                                
 CROP           : Soybean          CULTIVAR : GM 4 URUGUAY     ECOTYPE :INDETE  
 STARTING DATE  : NOV  9 2002                                                   
 PLANTING DATE  : NOV 12 2002        PLANTS/m2 :  7.0     ROW SPACING :  15.cm  
 WEATHER        : UYTA0201                                                      
 SOIL           : UYSS3P2304     TEXTURE : CL    -  P23-04    SNIA CLAY LOAM    
 SOIL INITIAL C : DEPTH:137cm EXTR. H2O:151.2mm  NO3: 25.0kg/ha  NH4: 29.0kg/ha 
 WATER BALANCE  : AUTOMATIC IRRIGATION - REFILL PROFILE                         
 IRRIGATION     : AUTOMATIC - PLANTING -> MATURITY [ SOIL DEPTH: 0.30m 50.%]    
 NITROGEN BAL.  : SOIL-N, N-UPTAKE & DYNAMIC N-FIXATION SIMULATION              
 N-FERTILIZER   : NO N-FERTILIZER APPLIED                                       
 RESIDUE/MANURE : INITIAL :     0 kg/ha ;       0 kg/ha IN     0 APPLICATIONS   
 ENVIRONM. OPT. : DAYL=    0.00  SRAD=    0.00  TMAX=    0.00  TMIN=    0.00    
                  RAIN=    0.00  CO2 =    0.00  DEW =    0.00  WIND=    0.00    
 SIMULATION OPT : WATER   :Y  NITROGEN:Y  N-FIX:Y  PHOSPH :N  PESTS  :N         
                  PHOTO   :C  ET      :R  INFIL:S  HYDROL :R  SOM    :G         
                  CO2 374ppm  NSWIT   :1  EVAP :S  SOIL   :2  STEMP  :D         
 MANAGEMENT OPT : PLANTING:R  IRRIG   :A  FERT :N  RESIDUE:N  HARVEST:M         
                  WEATHER :M  TILLAGE :N                                        
                                                                                
*SUMMARY OF SOIL AND GENETIC INPUT PARAMETERS                                   
                                                                                
   SOIL LOWER UPPER   SAT  EXTR  INIT   ROOT   BULK     pH    NO3    NH4    ORG 
  DEPTH LIMIT LIMIT    SW    SW    SW   DIST   DENS                          C  
   cm   cm3/cm3    cm3/cm3    cm3/cm3         g/cm3         ugN/g  ugN/g     %  
------------------------------------------------------------------------------- 
  0-  5 0.157 0.286 0.429 0.129 0.195   1.00   1.32   5.50   5.00   1.50   1.68 
  5- 15 0.157 0.286 0.429 0.129 0.195   1.00   1.32   5.50   5.00   1.50   1.68 
 15- 26 0.157 0.286 0.429 0.129 0.195   1.00   1.32   5.50   5.00   1.50   1.68 
 26- 41 0.199 0.320 0.441 0.121 0.235   0.40   1.38   5.90   1.90   1.50   0.96 
 41- 56 0.199 0.320 0.441 0.121 0.235   0.40   1.38   5.90   1.90   1.50   0.96 
 56- 73 0.217 0.320 0.441 0.103 0.320   0.10   1.42   7.70   0.00   1.50   0.40 
 73- 91 0.217 0.320 0.441 0.103 0.320   0.10   1.42   7.70   0.00   1.50   0.40 
 91-108 0.172 0.272 0.423 0.100 0.272   0.10   1.47   7.90   0.00   1.50   0.14 
108-125 0.172 0.272 0.423 0.100 0.272   0.10   1.47   7.90   0.00   1.50   0.14 
125-137 0.099 0.193 0.395 0.094 0.193   0.00   1.49   7.80   0.00   1.50   0.05 
                                                                                
TOT-137  24.7  39.8  58.9  15.1  34.9  <--cm   -  kg/ha-->   25.0   29.0 125173 
SOIL ALBEDO    : 0.12      EVAPORATION LIMIT :10.00         MIN. FACTOR  : 1.00 
RUNOFF CURVE # : 0.75      DRAINAGE RATE     : 0.25         FERT. FACTOR : 1.00 
                                                                                
 Soybean    CULTIVAR :UY0141-GM 4 URUGUAY       ECOTYPE :INDETE                 
 CSDVAR :13.39  PPSEN  : 0.29  EMG-FLW:20.80  FLW-FSD:18.00  FSD-PHM : 36.00    
 WTPSD  :0.200  SDPDVR : 1.70  SDFDUR :26.00  PODDUR :10.00  XFRUIT  :  1.00    
 THRESH : 77.0  SDPRO  :0.405  SDLIP   : 0.205                                  


   PLANT COMPONENT  HARVEST     LOST*   TOTAL  BALANCE
   ---------------  -------- kg[N]/ha -------  -------
   Leaf N              1.10    20.43    21.53
   Stem N              6.85     3.55    10.41
   Shell N            16.97    17.42    34.39
   Seed N            205.93     0.00   205.93
   Root N              5.39     5.61    11.00
   Nodule N            2.33     3.72     6.05
   Total N           238.58    50.74   289.31
   N leakage                            10.56
   TOTAL N                                      299.88


   N INPUTS TO SYSTEM                kg[N]/ha
   ------------------                --------
   Seed N At Planting                    0.68
   N2 Fixed                            220.59
   N Uptake from Soil                   78.62
   TOTAL N                                      299.89

   * Lost due to senescence, freeze, pest or disease damage.

*******************************************************************************

*DSSAT Cropping System Model Ver. 4.6.1.000 -release      NOV 11, 2016; 09:12:21
                                                                                
*RUN   4        : UYSB                      CRGRO046 UYSB1062    1              
 MODEL          : CRGRO046 - Soybean                                            
 EXPERIMENT     : UYSB1062 SN late to create DSS                                
 DATA PATH      :                                                               
 TREATMENT  1   : UYSB                      CRGRO046                            
                                                                                
                                                                                
 CROP           : Soybean          CULTIVAR : GM 4 URUGUAY     ECOTYPE :INDETE  
 STARTING DATE  : NOV  9 2003                                                   
 PLANTING DATE  : NOV 12 2003        PLANTS/m2 :  7.0     ROW SPACING :  15.cm  
 WEATHER        : UYTA0301                                                      
 SOIL           : UYSS3P2304     TEXTURE : CL    -  P23-04    SNIA CLAY LOAM    
 SOIL INITIAL C : DEPTH:137cm EXTR. H2O:151.2mm  NO3: 25.0kg/ha  NH4: 29.0kg/ha 
 WATER BALANCE  : AUTOMATIC IRRIGATION - REFILL PROFILE                         
 IRRIGATION     : AUTOMATIC - PLANTING -> MATURITY [ SOIL DEPTH: 0.30m 50.%]    
 NITROGEN BAL.  : SOIL-N, N-UPTAKE & DYNAMIC N-FIXATION SIMULATION              
 N-FERTILIZER   : NO N-FERTILIZER APPLIED                                       
 RESIDUE/MANURE : INITIAL :     0 kg/ha ;       0 kg/ha IN     0 APPLICATIONS   
 ENVIRONM. OPT. : DAYL=    0.00  SRAD=    0.00  TMAX=    0.00  TMIN=    0.00    
                  RAIN=    0.00  CO2 =    0.00  DEW =    0.00  WIND=    0.00    
 SIMULATION OPT : WATER   :Y  NITROGEN:Y  N-FIX:Y  PHOSPH :N  PESTS  :N         
                  PHOTO   :C  ET      :R  INFIL:S  HYDROL :R  SOM    :G         
                  CO2 376ppm  NSWIT   :1  EVAP :S  SOIL   :2  STEMP  :D         
 MANAGEMENT OPT : PLANTING:R  IRRIG   :A  FERT :N  RESIDUE:N  HARVEST:M         
                  WEATHER :M  TILLAGE :N                                        
                                                                                
*SUMMARY OF SOIL AND GENETIC INPUT PARAMETERS                                   
                                                                                
   SOIL LOWER UPPER   SAT  EXTR  INIT   ROOT   BULK     pH    NO3    NH4    ORG 
  DEPTH LIMIT LIMIT    SW    SW    SW   DIST   DENS                          C  
   cm   cm3/cm3    cm3/cm3    cm3/cm3         g/cm3         ugN/g  ugN/g     %  
------------------------------------------------------------------------------- 
  0-  5 0.157 0.286 0.429 0.129 0.195   1.00   1.32   5.50   5.00   1.50   1.68 
  5- 15 0.157 0.286 0.429 0.129 0.195   1.00   1.32   5.50   5.00   1.50   1.68 
 15- 26 0.157 0.286 0.429 0.129 0.195   1.00   1.32   5.50   5.00   1.50   1.68 
 26- 41 0.199 0.320 0.441 0.121 0.235   0.40   1.38   5.90   1.90   1.50   0.96 
 41- 56 0.199 0.320 0.441 0.121 0.235   0.40   1.38   5.90   1.90   1.50   0.96 
 56- 73 0.217 0.320 0.441 0.103 0.320   0.10   1.42   7.70   0.00   1.50   0.40 
 73- 91 0.217 0.320 0.441 0.103 0.320   0.10   1.42   7.70   0.00   1.50   0.40 
 91-108 0.172 0.272 0.423 0.100 0.272   0.10   1.47   7.90   0.00   1.50   0.14 
108-125 0.172 0.272 0.423 0.100 0.272   0.10   1.47   7.90   0.00   1.50   0.14 
125-137 0.099 0.193 0.395 0.094 0.193   0.00   1.49   7.80   0.00   1.50   0.05 
                                                                                
TOT-137  24.7  39.8  58.9  15.1  34.9  <--cm   -  kg/ha-->   25.0   29.0 125173 
SOIL ALBEDO    : 0.12      EVAPORATION LIMIT :10.00         MIN. FACTOR  : 1.00 
RUNOFF CURVE # : 0.75      DRAINAGE RATE     : 0.25         FERT. FACTOR : 1.00 
                                                                                
 Soybean    CULTIVAR :UY0141-GM 4 URUGUAY       ECOTYPE :INDETE                 
 CSDVAR :13.39  PPSEN  : 0.29  EMG-FLW:20.80  FLW-FSD:18.00  FSD-PHM : 36.00    
 WTPSD  :0.200  SDPDVR : 1.70  SDFDUR :26.00  PODDUR :10.00  XFRUIT  :  1.00    
 THRESH : 77.0  SDPRO  :0.405  SDLIP   : 0.205                                  


   PLANT COMPONENT  HARVEST     LOST*   TOTAL  BALANCE
   ---------------  -------- kg[N]/ha -------  -------
   Leaf N              1.16    21.73    22.89
   Stem N              6.65     3.77    10.42
   Shell N            20.61    15.37    35.97
   Seed N            251.76     0.00   251.76
   Root N              6.33     5.58    11.91
   Nodule N            2.91     3.82     6.74
   Total N           289.42    50.27   339.69
   N leakage                            12.24
   TOTAL N                                      351.93


   N INPUTS TO SYSTEM                kg[N]/ha
   ------------------                --------
   Seed N At Planting                    0.68
   N2 Fixed                            253.98
   N Uptake from Soil                   97.28
   TOTAL N                                      351.94

   * Lost due to senescence, freeze, pest or disease damage.

*******************************************************************************

*DSSAT Cropping System Model Ver. 4.6.1.000 -release      NOV 11, 2016; 09:12:21
                                                                                
*RUN   5        : UYSB                      CRGRO046 UYSB1062    1              
 MODEL          : CRGRO046 - Soybean                                            
 EXPERIMENT     : UYSB1062 SN late to create DSS                                
 DATA PATH      :                                                               
 TREATMENT  1   : UYSB                      CRGRO046                            
                                                                                
                                                                                
 CROP           : Soybean          CULTIVAR : GM 4 URUGUAY     ECOTYPE :INDETE  
 STARTING DATE  : NOV  8 2004                                                   
 PLANTING DATE  : NOV 11 2004        PLANTS/m2 :  7.0     ROW SPACING :  15.cm  
 WEATHER        : UYTA0401                                                      
 SOIL           : UYSS3P2304     TEXTURE : CL    -  P23-04    SNIA CLAY LOAM    
 SOIL INITIAL C : DEPTH:137cm EXTR. H2O:151.2mm  NO3: 25.0kg/ha  NH4: 29.0kg/ha 
 WATER BALANCE  : AUTOMATIC IRRIGATION - REFILL PROFILE                         
 IRRIGATION     : AUTOMATIC - PLANTING -> MATURITY [ SOIL DEPTH: 0.30m 50.%]    
 NITROGEN BAL.  : SOIL-N, N-UPTAKE & DYNAMIC N-FIXATION SIMULATION              
 N-FERTILIZER   : NO N-FERTILIZER APPLIED                                       
 RESIDUE/MANURE : INITIAL :     0 kg/ha ;       0 kg/ha IN     0 APPLICATIONS   
 ENVIRONM. OPT. : DAYL=    0.00  SRAD=    0.00  TMAX=    0.00  TMIN=    0.00    
                  RAIN=    0.00  CO2 =    0.00  DEW =    0.00  WIND=    0.00    
 SIMULATION OPT : WATER   :Y  NITROGEN:Y  N-FIX:Y  PHOSPH :N  PESTS  :N         
                  PHOTO   :C  ET      :R  INFIL:S  HYDROL :R  SOM    :G         
                  CO2 378ppm  NSWIT   :1  EVAP :S  SOIL   :2  STEMP  :D         
 MANAGEMENT OPT : PLANTING:R  IRRIG   :A  FERT :N  RESIDUE:N  HARVEST:M         
                  WEATHER :M  TILLAGE :N                                        
                                                                                
*SUMMARY OF SOIL AND GENETIC INPUT PARAMETERS                                   
                                                                                
   SOIL LOWER UPPER   SAT  EXTR  INIT   ROOT   BULK     pH    NO3    NH4    ORG 
  DEPTH LIMIT LIMIT    SW    SW    SW   DIST   DENS                          C  
   cm   cm3/cm3    cm3/cm3    cm3/cm3         g/cm3         ugN/g  ugN/g     %  
------------------------------------------------------------------------------- 
  0-  5 0.157 0.286 0.429 0.129 0.195   1.00   1.32   5.50   5.00   1.50   1.68 
  5- 15 0.157 0.286 0.429 0.129 0.195   1.00   1.32   5.50   5.00   1.50   1.68 
 15- 26 0.157 0.286 0.429 0.129 0.195   1.00   1.32   5.50   5.00   1.50   1.68 
 26- 41 0.199 0.320 0.441 0.121 0.235   0.40   1.38   5.90   1.90   1.50   0.96 
 41- 56 0.199 0.320 0.441 0.121 0.235   0.40   1.38   5.90   1.90   1.50   0.96 
 56- 73 0.217 0.320 0.441 0.103 0.320   0.10   1.42   7.70   0.00   1.50   0.40 
 73- 91 0.217 0.320 0.441 0.103 0.320   0.10   1.42   7.70   0.00   1.50   0.40 
 91-108 0.172 0.272 0.423 0.100 0.272   0.10   1.47   7.90   0.00   1.50   0.14 
108-125 0.172 0.272 0.423 0.100 0.272   0.10   1.47   7.90   0.00   1.50   0.14 
125-137 0.099 0.193 0.395 0.094 0.193   0.00   1.49   7.80   0.00   1.50   0.05 
                                                                                
TOT-137  24.7  39.8  58.9  15.1  34.9  <--cm   -  kg/ha-->   25.0   29.0 125173 
SOIL ALBEDO    : 0.12      EVAPORATION LIMIT :10.00         MIN. FACTOR  : 1.00 
RUNOFF CURVE # : 0.75      DRAINAGE RATE     : 0.25         FERT. FACTOR : 1.00 
                                                                                
 Soybean    CULTIVAR :UY0141-GM 4 URUGUAY       ECOTYPE :INDETE                 
 CSDVAR :13.39  PPSEN  : 0.29  EMG-FLW:20.80  FLW-FSD:18.00  FSD-PHM : 36.00    
 WTPSD  :0.200  SDPDVR : 1.70  SDFDUR :26.00  PODDUR :10.00  XFRUIT  :  1.00    
 THRESH : 77.0  SDPRO  :0.405  SDLIP   : 0.205                                  


   PLANT COMPONENT  HARVEST     LOST*   TOTAL  BALANCE
   ---------------  -------- kg[N]/ha -------  -------
   Leaf N              1.32    24.79    26.11
   Stem N              8.16     4.26    12.42
   Shell N            19.14    26.78    45.92
   Seed N            235.28     0.00   235.28
   Root N              6.88     6.85    13.73
   Nodule N            3.45     3.69     7.14
   Total N           274.25    66.38   340.62
   N leakage                            15.79
   TOTAL N                                      356.41


   N INPUTS TO SYSTEM                kg[N]/ha
   ------------------                --------
   Seed N At Planting                    0.68
   N2 Fixed                            270.74
   N Uptake from Soil                   85.00
   TOTAL N                                      356.42

   * Lost due to senescence, freeze, pest or disease damage.

*******************************************************************************

*DSSAT Cropping System Model Ver. 4.6.1.000 -release      NOV 11, 2016; 09:12:21
                                                                                
*RUN   6        : UYSB                      CRGRO046 UYSB1062    1              
 MODEL          : CRGRO046 - Soybean                                            
 EXPERIMENT     : UYSB1062 SN late to create DSS                                
 DATA PATH      :                                                               
 TREATMENT  1   : UYSB                      CRGRO046                            
                                                                                
                                                                                
 CROP           : Soybean          CULTIVAR : GM 4 URUGUAY     ECOTYPE :INDETE  
 STARTING DATE  : NOV  9 2005                                                   
 PLANTING DATE  : NOV 12 2005        PLANTS/m2 :  7.0     ROW SPACING :  15.cm  
 WEATHER        : UYTA0501                                                      
 SOIL           : UYSS3P2304     TEXTURE : CL    -  P23-04    SNIA CLAY LOAM    
 SOIL INITIAL C : DEPTH:137cm EXTR. H2O:151.2mm  NO3: 25.0kg/ha  NH4: 29.0kg/ha 
 WATER BALANCE  : AUTOMATIC IRRIGATION - REFILL PROFILE                         
 IRRIGATION     : AUTOMATIC - PLANTING -> MATURITY [ SOIL DEPTH: 0.30m 50.%]    
 NITROGEN BAL.  : SOIL-N, N-UPTAKE & DYNAMIC N-FIXATION SIMULATION              
 N-FERTILIZER   : NO N-FERTILIZER APPLIED                                       
 RESIDUE/MANURE : INITIAL :     0 kg/ha ;       0 kg/ha IN     0 APPLICATIONS   
 ENVIRONM. OPT. : DAYL=    0.00  SRAD=    0.00  TMAX=    0.00  TMIN=    0.00    
                  RAIN=    0.00  CO2 =    0.00  DEW =    0.00  WIND=    0.00    
 SIMULATION OPT : WATER   :Y  NITROGEN:Y  N-FIX:Y  PHOSPH :N  PESTS  :N         
                  PHOTO   :C  ET      :R  INFIL:S  HYDROL :R  SOM    :G         
                  CO2 380ppm  NSWIT   :1  EVAP :S  SOIL   :2  STEMP  :D         
 MANAGEMENT OPT : PLANTING:R  IRRIG   :A  FERT :N  RESIDUE:N  HARVEST:M         
                  WEATHER :M  TILLAGE :N                                        
                                                                                
*SUMMARY OF SOIL AND GENETIC INPUT PARAMETERS                                   
                                                                                
   SOIL LOWER UPPER   SAT  EXTR  INIT   ROOT   BULK     pH    NO3    NH4    ORG 
  DEPTH LIMIT LIMIT    SW    SW    SW   DIST   DENS                          C  
   cm   cm3/cm3    cm3/cm3    cm3/cm3         g/cm3         ugN/g  ugN/g     %  
------------------------------------------------------------------------------- 
  0-  5 0.157 0.286 0.429 0.129 0.195   1.00   1.32   5.50   5.00   1.50   1.68 
  5- 15 0.157 0.286 0.429 0.129 0.195   1.00   1.32   5.50   5.00   1.50   1.68 
 15- 26 0.157 0.286 0.429 0.129 0.195   1.00   1.32   5.50   5.00   1.50   1.68 
 26- 41 0.199 0.320 0.441 0.121 0.235   0.40   1.38   5.90   1.90   1.50   0.96 
 41- 56 0.199 0.320 0.441 0.121 0.235   0.40   1.38   5.90   1.90   1.50   0.96 
 56- 73 0.217 0.320 0.441 0.103 0.320   0.10   1.42   7.70   0.00   1.50   0.40 
 73- 91 0.217 0.320 0.441 0.103 0.320   0.10   1.42   7.70   0.00   1.50   0.40 
 91-108 0.172 0.272 0.423 0.100 0.272   0.10   1.47   7.90   0.00   1.50   0.14 
108-125 0.172 0.272 0.423 0.100 0.272   0.10   1.47   7.90   0.00   1.50   0.14 
125-137 0.099 0.193 0.395 0.094 0.193   0.00   1.49   7.80   0.00   1.50   0.05 
                                                                                
TOT-137  24.7  39.8  58.9  15.1  34.9  <--cm   -  kg/ha-->   25.0   29.0 125173 
SOIL ALBEDO    : 0.12      EVAPORATION LIMIT :10.00         MIN. FACTOR  : 1.00 
RUNOFF CURVE # : 0.75      DRAINAGE RATE     : 0.25         FERT. FACTOR : 1.00 
                                                                                
 Soybean    CULTIVAR :UY0141-GM 4 URUGUAY       ECOTYPE :INDETE                 
 CSDVAR :13.39  PPSEN  : 0.29  EMG-FLW:20.80  FLW-FSD:18.00  FSD-PHM : 36.00    
 WTPSD  :0.200  SDPDVR : 1.70  SDFDUR :26.00  PODDUR :10.00  XFRUIT  :  1.00    
 THRESH : 77.0  SDPRO  :0.405  SDLIP   : 0.205                                  


   PLANT COMPONENT  HARVEST     LOST*   TOTAL  BALANCE
   ---------------  -------- kg[N]/ha -------  -------
   Leaf N              1.25    23.19    24.43
   Stem N              7.29     4.03    11.31
   Shell N            21.80    21.04    42.84
   Seed N            243.34     0.00   243.34
   Root N              6.27     6.59    12.86
   Nodule N            3.76     3.50     7.25
   Total N           283.70    58.34   342.04
   N leakage                            15.25
   TOTAL N                                      357.29


   N INPUTS TO SYSTEM                kg[N]/ha
   ------------------                --------
   Seed N At Planting                    0.68
   N2 Fixed                            270.19
   N Uptake from Soil                   86.43
   TOTAL N                                      357.30

   * Lost due to senescence, freeze, pest or disease damage.

*******************************************************************************

*DSSAT Cropping System Model Ver. 4.6.1.000 -release      NOV 11, 2016; 09:12:21
                                                                                
*RUN   7        : UYSB                      CRGRO046 UYSB1062    1              
 MODEL          : CRGRO046 - Soybean                                            
 EXPERIMENT     : UYSB1062 SN late to create DSS                                
 DATA PATH      :                                                               
 TREATMENT  1   : UYSB                      CRGRO046                            
                                                                                
                                                                                
 CROP           : Soybean          CULTIVAR : GM 4 URUGUAY     ECOTYPE :INDETE  
 STARTING DATE  : NOV  9 2006                                                   
 PLANTING DATE  : NOV 12 2006        PLANTS/m2 :  7.0     ROW SPACING :  15.cm  
 WEATHER        : UYTA0601                                                      
 SOIL           : UYSS3P2304     TEXTURE : CL    -  P23-04    SNIA CLAY LOAM    
 SOIL INITIAL C : DEPTH:137cm EXTR. H2O:151.2mm  NO3: 25.0kg/ha  NH4: 29.0kg/ha 
 WATER BALANCE  : AUTOMATIC IRRIGATION - REFILL PROFILE                         
 IRRIGATION     : AUTOMATIC - PLANTING -> MATURITY [ SOIL DEPTH: 0.30m 50.%]    
 NITROGEN BAL.  : SOIL-N, N-UPTAKE & DYNAMIC N-FIXATION SIMULATION              
 N-FERTILIZER   : NO N-FERTILIZER APPLIED                                       
 RESIDUE/MANURE : INITIAL :     0 kg/ha ;       0 kg/ha IN     0 APPLICATIONS   
 ENVIRONM. OPT. : DAYL=    0.00  SRAD=    0.00  TMAX=    0.00  TMIN=    0.00    
                  RAIN=    0.00  CO2 =    0.00  DEW =    0.00  WIND=    0.00    
 SIMULATION OPT : WATER   :Y  NITROGEN:Y  N-FIX:Y  PHOSPH :N  PESTS  :N         
                  PHOTO   :C  ET      :R  INFIL:S  HYDROL :R  SOM    :G         
                  CO2 382ppm  NSWIT   :1  EVAP :S  SOIL   :2  STEMP  :D         
 MANAGEMENT OPT : PLANTING:R  IRRIG   :A  FERT :N  RESIDUE:N  HARVEST:M         
                  WEATHER :M  TILLAGE :N                                        
                                                                                
*SUMMARY OF SOIL AND GENETIC INPUT PARAMETERS                                   
                                                                                
   SOIL LOWER UPPER   SAT  EXTR  INIT   ROOT   BULK     pH    NO3    NH4    ORG 
  DEPTH LIMIT LIMIT    SW    SW    SW   DIST   DENS                          C  
   cm   cm3/cm3    cm3/cm3    cm3/cm3         g/cm3         ugN/g  ugN/g     %  
------------------------------------------------------------------------------- 
  0-  5 0.157 0.286 0.429 0.129 0.195   1.00   1.32   5.50   5.00   1.50   1.68 
  5- 15 0.157 0.286 0.429 0.129 0.195   1.00   1.32   5.50   5.00   1.50   1.68 
 15- 26 0.157 0.286 0.429 0.129 0.195   1.00   1.32   5.50   5.00   1.50   1.68 
 26- 41 0.199 0.320 0.441 0.121 0.235   0.40   1.38   5.90   1.90   1.50   0.96 
 41- 56 0.199 0.320 0.441 0.121 0.235   0.40   1.38   5.90   1.90   1.50   0.96 
 56- 73 0.217 0.320 0.441 0.103 0.320   0.10   1.42   7.70   0.00   1.50   0.40 
 73- 91 0.217 0.320 0.441 0.103 0.320   0.10   1.42   7.70   0.00   1.50   0.40 
 91-108 0.172 0.272 0.423 0.100 0.272   0.10   1.47   7.90   0.00   1.50   0.14 
108-125 0.172 0.272 0.423 0.100 0.272   0.10   1.47   7.90   0.00   1.50   0.14 
125-137 0.099 0.193 0.395 0.094 0.193   0.00   1.49   7.80   0.00   1.50   0.05 
                                                                                
TOT-137  24.7  39.8  58.9  15.1  34.9  <--cm   -  kg/ha-->   25.0   29.0 125173 
SOIL ALBEDO    : 0.12      EVAPORATION LIMIT :10.00         MIN. FACTOR  : 1.00 
RUNOFF CURVE # : 0.75      DRAINAGE RATE     : 0.25         FERT. FACTOR : 1.00 
                                                                                
 Soybean    CULTIVAR :UY0141-GM 4 URUGUAY       ECOTYPE :INDETE                 
 CSDVAR :13.39  PPSEN  : 0.29  EMG-FLW:20.80  FLW-FSD:18.00  FSD-PHM : 36.00    
 WTPSD  :0.200  SDPDVR : 1.70  SDFDUR :26.00  PODDUR :10.00  XFRUIT  :  1.00    
 THRESH : 77.0  SDPRO  :0.405  SDLIP   : 0.205                                  


   PLANT COMPONENT  HARVEST     LOST*   TOTAL  BALANCE
   ---------------  -------- kg[N]/ha -------  -------
   Leaf N              1.07    20.27    21.34
   Stem N              6.70     3.51    10.21
   Shell N            20.57    22.31    42.88
   Seed N            210.13     0.00   210.13
   Root N              5.18     6.19    11.37
   Nodule N            2.70     3.44     6.14
   Total N           246.35    55.72   302.07
   N leakage                            16.55
   TOTAL N                                      318.62


   N INPUTS TO SYSTEM                kg[N]/ha
   ------------------                --------
   Seed N At Planting                    0.68
   N2 Fixed                            217.54
   N Uptake from Soil                  100.41
   TOTAL N                                      318.63

   * Lost due to senescence, freeze, pest or disease damage.

*******************************************************************************

*DSSAT Cropping System Model Ver. 4.6.1.000 -release      NOV 11, 2016; 09:12:21
                                                                                
*RUN   8        : UYSB                      CRGRO046 UYSB1062    1              
 MODEL          : CRGRO046 - Soybean                                            
 EXPERIMENT     : UYSB1062 SN late to create DSS                                
 DATA PATH      :                                                               
 TREATMENT  1   : UYSB                      CRGRO046                            
                                                                                
                                                                                
 CROP           : Soybean          CULTIVAR : GM 4 URUGUAY     ECOTYPE :INDETE  
 STARTING DATE  : NOV  9 2007                                                   
 PLANTING DATE  : NOV 12 2007        PLANTS/m2 :  7.0     ROW SPACING :  15.cm  
 WEATHER        : UYTA0701                                                      
 SOIL           : UYSS3P2304     TEXTURE : CL    -  P23-04    SNIA CLAY LOAM    
 SOIL INITIAL C : DEPTH:137cm EXTR. H2O:151.2mm  NO3: 25.0kg/ha  NH4: 29.0kg/ha 
 WATER BALANCE  : AUTOMATIC IRRIGATION - REFILL PROFILE                         
 IRRIGATION     : AUTOMATIC - PLANTING -> MATURITY [ SOIL DEPTH: 0.30m 50.%]    
 NITROGEN BAL.  : SOIL-N, N-UPTAKE & DYNAMIC N-FIXATION SIMULATION              
 N-FERTILIZER   : NO N-FERTILIZER APPLIED                                       
 RESIDUE/MANURE : INITIAL :     0 kg/ha ;       0 kg/ha IN     0 APPLICATIONS   
 ENVIRONM. OPT. : DAYL=    0.00  SRAD=    0.00  TMAX=    0.00  TMIN=    0.00    
                  RAIN=    0.00  CO2 =    0.00  DEW =    0.00  WIND=    0.00    
 SIMULATION OPT : WATER   :Y  NITROGEN:Y  N-FIX:Y  PHOSPH :N  PESTS  :N         
                  PHOTO   :C  ET      :R  INFIL:S  HYDROL :R  SOM    :G         
                  CO2 384ppm  NSWIT   :1  EVAP :S  SOIL   :2  STEMP  :D         
 MANAGEMENT OPT : PLANTING:R  IRRIG   :A  FERT :N  RESIDUE:N  HARVEST:M         
                  WEATHER :M  TILLAGE :N                                        
                                                                                
*SUMMARY OF SOIL AND GENETIC INPUT PARAMETERS                                   
                                                                                
   SOIL LOWER UPPER   SAT  EXTR  INIT   ROOT   BULK     pH    NO3    NH4    ORG 
  DEPTH LIMIT LIMIT    SW    SW    SW   DIST   DENS                          C  
   cm   cm3/cm3    cm3/cm3    cm3/cm3         g/cm3         ugN/g  ugN/g     %  
------------------------------------------------------------------------------- 
  0-  5 0.157 0.286 0.429 0.129 0.195   1.00   1.32   5.50   5.00   1.50   1.68 
  5- 15 0.157 0.286 0.429 0.129 0.195   1.00   1.32   5.50   5.00   1.50   1.68 
 15- 26 0.157 0.286 0.429 0.129 0.195   1.00   1.32   5.50   5.00   1.50   1.68 
 26- 41 0.199 0.320 0.441 0.121 0.235   0.40   1.38   5.90   1.90   1.50   0.96 
 41- 56 0.199 0.320 0.441 0.121 0.235   0.40   1.38   5.90   1.90   1.50   0.96 
 56- 73 0.217 0.320 0.441 0.103 0.320   0.10   1.42   7.70   0.00   1.50   0.40 
 73- 91 0.217 0.320 0.441 0.103 0.320   0.10   1.42   7.70   0.00   1.50   0.40 
 91-108 0.172 0.272 0.423 0.100 0.272   0.10   1.47   7.90   0.00   1.50   0.14 
108-125 0.172 0.272 0.423 0.100 0.272   0.10   1.47   7.90   0.00   1.50   0.14 
125-137 0.099 0.193 0.395 0.094 0.193   0.00   1.49   7.80   0.00   1.50   0.05 
                                                                                
TOT-137  24.7  39.8  58.9  15.1  34.9  <--cm   -  kg/ha-->   25.0   29.0 125173 
SOIL ALBEDO    : 0.12      EVAPORATION LIMIT :10.00         MIN. FACTOR  : 1.00 
RUNOFF CURVE # : 0.75      DRAINAGE RATE     : 0.25         FERT. FACTOR : 1.00 
                                                                                
 Soybean    CULTIVAR :UY0141-GM 4 URUGUAY       ECOTYPE :INDETE                 
 CSDVAR :13.39  PPSEN  : 0.29  EMG-FLW:20.80  FLW-FSD:18.00  FSD-PHM : 36.00    
 WTPSD  :0.200  SDPDVR : 1.70  SDFDUR :26.00  PODDUR :10.00  XFRUIT  :  1.00    
 THRESH : 77.0  SDPRO  :0.405  SDLIP   : 0.205                                  


   PLANT COMPONENT  HARVEST     LOST*   TOTAL  BALANCE
   ---------------  -------- kg[N]/ha -------  -------
   Leaf N              1.21    22.81    24.02
   Stem N              7.12     3.95    11.07
   Shell N            19.72    20.28    40.00
   Seed N            234.53     0.00   234.53
   Root N              6.48     5.97    12.45
   Nodule N            3.09     4.15     7.24
   Total N           272.15    57.15   329.30
   N leakage                            13.50
   TOTAL N                                      342.80


   N INPUTS TO SYSTEM                kg[N]/ha
   ------------------                --------
   Seed N At Planting                    0.68
   N2 Fixed                            256.11
   N Uptake from Soil                   86.02
   TOTAL N                                      342.81

   * Lost due to senescence, freeze, pest or disease damage.

*******************************************************************************

*DSSAT Cropping System Model Ver. 4.6.1.000 -release      NOV 11, 2016; 09:12:21
                                                                                
*RUN   9        : UYSB                      CRGRO046 UYSB1062    1              
 MODEL          : CRGRO046 - Soybean                                            
 EXPERIMENT     : UYSB1062 SN late to create DSS                                
 DATA PATH      :                                                               
 TREATMENT  1   : UYSB                      CRGRO046                            
                                                                                
                                                                                
 CROP           : Soybean          CULTIVAR : GM 4 URUGUAY     ECOTYPE :INDETE  
 STARTING DATE  : NOV  8 2008                                                   
 PLANTING DATE  : NOV 11 2008        PLANTS/m2 :  7.0     ROW SPACING :  15.cm  
 WEATHER        : UYTA0801                                                      
 SOIL           : UYSS3P2304     TEXTURE : CL    -  P23-04    SNIA CLAY LOAM    
 SOIL INITIAL C : DEPTH:137cm EXTR. H2O:151.2mm  NO3: 25.0kg/ha  NH4: 29.0kg/ha 
 WATER BALANCE  : AUTOMATIC IRRIGATION - REFILL PROFILE                         
 IRRIGATION     : AUTOMATIC - PLANTING -> MATURITY [ SOIL DEPTH: 0.30m 50.%]    
 NITROGEN BAL.  : SOIL-N, N-UPTAKE & DYNAMIC N-FIXATION SIMULATION              
 N-FERTILIZER   : NO N-FERTILIZER APPLIED                                       
 RESIDUE/MANURE : INITIAL :     0 kg/ha ;       0 kg/ha IN     0 APPLICATIONS   
 ENVIRONM. OPT. : DAYL=    0.00  SRAD=    0.00  TMAX=    0.00  TMIN=    0.00    
                  RAIN=    0.00  CO2 =    0.00  DEW =    0.00  WIND=    0.00    
 SIMULATION OPT : WATER   :Y  NITROGEN:Y  N-FIX:Y  PHOSPH :N  PESTS  :N         
                  PHOTO   :C  ET      :R  INFIL:S  HYDROL :R  SOM    :G         
                  CO2 386ppm  NSWIT   :1  EVAP :S  SOIL   :2  STEMP  :D         
 MANAGEMENT OPT : PLANTING:R  IRRIG   :A  FERT :N  RESIDUE:N  HARVEST:M         
                  WEATHER :M  TILLAGE :N                                        
                                                                                
*SUMMARY OF SOIL AND GENETIC INPUT PARAMETERS                                   
                                                                                
   SOIL LOWER UPPER   SAT  EXTR  INIT   ROOT   BULK     pH    NO3    NH4    ORG 
  DEPTH LIMIT LIMIT    SW    SW    SW   DIST   DENS                          C  
   cm   cm3/cm3    cm3/cm3    cm3/cm3         g/cm3         ugN/g  ugN/g     %  
------------------------------------------------------------------------------- 
  0-  5 0.157 0.286 0.429 0.129 0.195   1.00   1.32   5.50   5.00   1.50   1.68 
  5- 15 0.157 0.286 0.429 0.129 0.195   1.00   1.32   5.50   5.00   1.50   1.68 
 15- 26 0.157 0.286 0.429 0.129 0.195   1.00   1.32   5.50   5.00   1.50   1.68 
 26- 41 0.199 0.320 0.441 0.121 0.235   0.40   1.38   5.90   1.90   1.50   0.96 
 41- 56 0.199 0.320 0.441 0.121 0.235   0.40   1.38   5.90   1.90   1.50   0.96 
 56- 73 0.217 0.320 0.441 0.103 0.320   0.10   1.42   7.70   0.00   1.50   0.40 
 73- 91 0.217 0.320 0.441 0.103 0.320   0.10   1.42   7.70   0.00   1.50   0.40 
 91-108 0.172 0.272 0.423 0.100 0.272   0.10   1.47   7.90   0.00   1.50   0.14 
108-125 0.172 0.272 0.423 0.100 0.272   0.10   1.47   7.90   0.00   1.50   0.14 
125-137 0.099 0.193 0.395 0.094 0.193   0.00   1.49   7.80   0.00   1.50   0.05 
                                                                                
TOT-137  24.7  39.8  58.9  15.1  34.9  <--cm   -  kg/ha-->   25.0   29.0 125173 
SOIL ALBEDO    : 0.12      EVAPORATION LIMIT :10.00         MIN. FACTOR  : 1.00 
RUNOFF CURVE # : 0.75      DRAINAGE RATE     : 0.25         FERT. FACTOR : 1.00 
                                                                                
 Soybean    CULTIVAR :UY0141-GM 4 URUGUAY       ECOTYPE :INDETE                 
 CSDVAR :13.39  PPSEN  : 0.29  EMG-FLW:20.80  FLW-FSD:18.00  FSD-PHM : 36.00    
 WTPSD  :0.200  SDPDVR : 1.70  SDFDUR :26.00  PODDUR :10.00  XFRUIT  :  1.00    
 THRESH : 77.0  SDPRO  :0.405  SDLIP   : 0.205                                  


   PLANT COMPONENT  HARVEST     LOST*   TOTAL  BALANCE
   ---------------  -------- kg[N]/ha -------  -------
   Leaf N              1.27    24.38    25.65
   Stem N              7.91     4.24    12.15
   Shell N            21.14    22.05    43.19
   Seed N            268.65     0.00   268.65
   Root N              6.22     7.16    13.38
   Nodule N            3.16     4.14     7.30
   Total N           308.35    61.97   370.32
   N leakage                            15.46
   TOTAL N                                      385.78


   N INPUTS TO SYSTEM                kg[N]/ha
   ------------------                --------
   Seed N At Planting                    0.68
   N2 Fixed                            306.27
   N Uptake from Soil                   78.84
   TOTAL N                                      385.79

   * Lost due to senescence, freeze, pest or disease damage.

*******************************************************************************

*DSSAT Cropping System Model Ver. 4.6.1.000 -release      NOV 11, 2016; 09:12:21
                                                                                
*RUN  10        : UYSB                      CRGRO046 UYSB1062    1              
 MODEL          : CRGRO046 - Soybean                                            
 EXPERIMENT     : UYSB1062 SN late to create DSS                                
 DATA PATH      :                                                               
 TREATMENT  1   : UYSB                      CRGRO046                            
                                                                                
                                                                                
 CROP           : Soybean          CULTIVAR : GM 4 URUGUAY     ECOTYPE :INDETE  
 STARTING DATE  : NOV  9 2009                                                   
 PLANTING DATE  : NOV 12 2009        PLANTS/m2 :  7.0     ROW SPACING :  15.cm  
 WEATHER        : UYTA0901                                                      
 SOIL           : UYSS3P2304     TEXTURE : CL    -  P23-04    SNIA CLAY LOAM    
 SOIL INITIAL C : DEPTH:137cm EXTR. H2O:151.2mm  NO3: 25.0kg/ha  NH4: 29.0kg/ha 
 WATER BALANCE  : AUTOMATIC IRRIGATION - REFILL PROFILE                         
 IRRIGATION     : AUTOMATIC - PLANTING -> MATURITY [ SOIL DEPTH: 0.30m 50.%]    
 NITROGEN BAL.  : SOIL-N, N-UPTAKE & DYNAMIC N-FIXATION SIMULATION              
 N-FERTILIZER   : NO N-FERTILIZER APPLIED                                       
 RESIDUE/MANURE : INITIAL :     0 kg/ha ;       0 kg/ha IN     0 APPLICATIONS   
 ENVIRONM. OPT. : DAYL=    0.00  SRAD=    0.00  TMAX=    0.00  TMIN=    0.00    
                  RAIN=    0.00  CO2 =    0.00  DEW =    0.00  WIND=    0.00    
 SIMULATION OPT : WATER   :Y  NITROGEN:Y  N-FIX:Y  PHOSPH :N  PESTS  :N         
                  PHOTO   :C  ET      :R  INFIL:S  HYDROL :R  SOM    :G         
                  CO2 388ppm  NSWIT   :1  EVAP :S  SOIL   :2  STEMP  :D         
 MANAGEMENT OPT : PLANTING:R  IRRIG   :A  FERT :N  RESIDUE:N  HARVEST:M         
                  WEATHER :M  TILLAGE :N                                        
                                                                                
*SUMMARY OF SOIL AND GENETIC INPUT PARAMETERS                                   
                                                                                
   SOIL LOWER UPPER   SAT  EXTR  INIT   ROOT   BULK     pH    NO3    NH4    ORG 
  DEPTH LIMIT LIMIT    SW    SW    SW   DIST   DENS                          C  
   cm   cm3/cm3    cm3/cm3    cm3/cm3         g/cm3         ugN/g  ugN/g     %  
------------------------------------------------------------------------------- 
  0-  5 0.157 0.286 0.429 0.129 0.195   1.00   1.32   5.50   5.00   1.50   1.68 
  5- 15 0.157 0.286 0.429 0.129 0.195   1.00   1.32   5.50   5.00   1.50   1.68 
 15- 26 0.157 0.286 0.429 0.129 0.195   1.00   1.32   5.50   5.00   1.50   1.68 
 26- 41 0.199 0.320 0.441 0.121 0.235   0.40   1.38   5.90   1.90   1.50   0.96 
 41- 56 0.199 0.320 0.441 0.121 0.235   0.40   1.38   5.90   1.90   1.50   0.96 
 56- 73 0.217 0.320 0.441 0.103 0.320   0.10   1.42   7.70   0.00   1.50   0.40 
 73- 91 0.217 0.320 0.441 0.103 0.320   0.10   1.42   7.70   0.00   1.50   0.40 
 91-108 0.172 0.272 0.423 0.100 0.272   0.10   1.47   7.90   0.00   1.50   0.14 
108-125 0.172 0.272 0.423 0.100 0.272   0.10   1.47   7.90   0.00   1.50   0.14 
125-137 0.099 0.193 0.395 0.094 0.193   0.00   1.49   7.80   0.00   1.50   0.05 
                                                                                
TOT-137  24.7  39.8  58.9  15.1  34.9  <--cm   -  kg/ha-->   25.0   29.0 125173 
SOIL ALBEDO    : 0.12      EVAPORATION LIMIT :10.00         MIN. FACTOR  : 1.00 
RUNOFF CURVE # : 0.75      DRAINAGE RATE     : 0.25         FERT. FACTOR : 1.00 
                                                                                
 Soybean    CULTIVAR :UY0141-GM 4 URUGUAY       ECOTYPE :INDETE                 
 CSDVAR :13.39  PPSEN  : 0.29  EMG-FLW:20.80  FLW-FSD:18.00  FSD-PHM : 36.00    
 WTPSD  :0.200  SDPDVR : 1.70  SDFDUR :26.00  PODDUR :10.00  XFRUIT  :  1.00    
 THRESH : 77.0  SDPRO  :0.405  SDLIP   : 0.205                                  


   PLANT COMPONENT  HARVEST     LOST*   TOTAL  BALANCE
   ---------------  -------- kg[N]/ha -------  -------
   Leaf N              0.98    18.26    19.24
   Stem N              6.03     3.15     9.18
   Shell N            15.87    13.64    29.52
   Seed N            196.89     0.00   196.89
   Root N              4.05     6.69    10.73
   Nodule N            2.95     3.26     6.21
   Total N           226.76    45.01   271.77
   N leakage                            11.47
   TOTAL N                                      283.24


   N INPUTS TO SYSTEM                kg[N]/ha
   ------------------                --------
   Seed N At Planting                    0.68
   N2 Fixed                            210.32
   N Uptake from Soil                   72.25
   TOTAL N                                      283.24

   * Lost due to senescence, freeze, pest or disease damage.

*******************************************************************************

*DSSAT Cropping System Model Ver. 4.6.1.000 -release      NOV 11, 2016; 09:12:21
                                                                                
*RUN  11        : UYSB                      CRGRO046 UYSB1062    1              
 MODEL          : CRGRO046 - Soybean                                            
 EXPERIMENT     : UYSB1062 SN late to create DSS                                
 DATA PATH      :                                                               
 TREATMENT  1   : UYSB                      CRGRO046                            
                                                                                
                                                                                
 CROP           : Soybean          CULTIVAR : GM 4 URUGUAY     ECOTYPE :INDETE  
 STARTING DATE  : NOV  9 2010                                                   
 PLANTING DATE  : NOV 12 2010        PLANTS/m2 :  7.0     ROW SPACING :  15.cm  
 WEATHER        : UYTA1001                                                      
 SOIL           : UYSS3P2304     TEXTURE : CL    -  P23-04    SNIA CLAY LOAM    
 SOIL INITIAL C : DEPTH:137cm EXTR. H2O:151.2mm  NO3: 25.0kg/ha  NH4: 29.0kg/ha 
 WATER BALANCE  : AUTOMATIC IRRIGATION - REFILL PROFILE                         
 IRRIGATION     : AUTOMATIC - PLANTING -> MATURITY [ SOIL DEPTH: 0.30m 50.%]    
 NITROGEN BAL.  : SOIL-N, N-UPTAKE & DYNAMIC N-FIXATION SIMULATION              
 N-FERTILIZER   : NO N-FERTILIZER APPLIED                                       
 RESIDUE/MANURE : INITIAL :     0 kg/ha ;       0 kg/ha IN     0 APPLICATIONS   
 ENVIRONM. OPT. : DAYL=    0.00  SRAD=    0.00  TMAX=    0.00  TMIN=    0.00    
                  RAIN=    0.00  CO2 =    0.00  DEW =    0.00  WIND=    0.00    
 SIMULATION OPT : WATER   :Y  NITROGEN:Y  N-FIX:Y  PHOSPH :N  PESTS  :N         
                  PHOTO   :C  ET      :R  INFIL:S  HYDROL :R  SOM    :G         
                  CO2 390ppm  NSWIT   :1  EVAP :S  SOIL   :2  STEMP  :D         
 MANAGEMENT OPT : PLANTING:R  IRRIG   :A  FERT :N  RESIDUE:N  HARVEST:M         
                  WEATHER :M  TILLAGE :N                                        
                                                                                
*SUMMARY OF SOIL AND GENETIC INPUT PARAMETERS                                   
                                                                                
   SOIL LOWER UPPER   SAT  EXTR  INIT   ROOT   BULK     pH    NO3    NH4    ORG 
  DEPTH LIMIT LIMIT    SW    SW    SW   DIST   DENS                          C  
   cm   cm3/cm3    cm3/cm3    cm3/cm3         g/cm3         ugN/g  ugN/g     %  
------------------------------------------------------------------------------- 
  0-  5 0.157 0.286 0.429 0.129 0.195   1.00   1.32   5.50   5.00   1.50   1.68 
  5- 15 0.157 0.286 0.429 0.129 0.195   1.00   1.32   5.50   5.00   1.50   1.68 
 15- 26 0.157 0.286 0.429 0.129 0.195   1.00   1.32   5.50   5.00   1.50   1.68 
 26- 41 0.199 0.320 0.441 0.121 0.235   0.40   1.38   5.90   1.90   1.50   0.96 
 41- 56 0.199 0.320 0.441 0.121 0.235   0.40   1.38   5.90   1.90   1.50   0.96 
 56- 73 0.217 0.320 0.441 0.103 0.320   0.10   1.42   7.70   0.00   1.50   0.40 
 73- 91 0.217 0.320 0.441 0.103 0.320   0.10   1.42   7.70   0.00   1.50   0.40 
 91-108 0.172 0.272 0.423 0.100 0.272   0.10   1.47   7.90   0.00   1.50   0.14 
108-125 0.172 0.272 0.423 0.100 0.272   0.10   1.47   7.90   0.00   1.50   0.14 
125-137 0.099 0.193 0.395 0.094 0.193   0.00   1.49   7.80   0.00   1.50   0.05 
                                                                                
TOT-137  24.7  39.8  58.9  15.1  34.9  <--cm   -  kg/ha-->   25.0   29.0 125173 
SOIL ALBEDO    : 0.12      EVAPORATION LIMIT :10.00         MIN. FACTOR  : 1.00 
RUNOFF CURVE # : 0.75      DRAINAGE RATE     : 0.25         FERT. FACTOR : 1.00 
                                                                                
 Soybean    CULTIVAR :UY0141-GM 4 URUGUAY       ECOTYPE :INDETE                 
 CSDVAR :13.39  PPSEN  : 0.29  EMG-FLW:20.80  FLW-FSD:18.00  FSD-PHM : 36.00    
 WTPSD  :0.200  SDPDVR : 1.70  SDFDUR :26.00  PODDUR :10.00  XFRUIT  :  1.00    
 THRESH : 77.0  SDPRO  :0.405  SDLIP   : 0.205                                  


   PLANT COMPONENT  HARVEST     LOST*   TOTAL  BALANCE
   ---------------  -------- kg[N]/ha -------  -------
   Leaf N              1.17    22.02    23.18
   Stem N              7.11     3.84    10.95
   Shell N            16.50    16.43    32.94
   Seed N            252.22     0.00   252.22
   Root N              6.39     5.75    12.14
   Nodule N            3.71     3.63     7.33
   Total N           287.10    51.67   338.77
   N leakage                            10.89
   TOTAL N                                      349.66


   N INPUTS TO SYSTEM                kg[N]/ha
   ------------------                --------
   Seed N At Planting                    0.68
   N2 Fixed                            243.23
   N Uptake from Soil                  105.77
   TOTAL N                                      349.67

   * Lost due to senescence, freeze, pest or disease damage.

*******************************************************************************
