*PLANT C OUTPUT FILE

*DSSAT Cropping System Model Ver. 4.6.1.000 -release      JUN 01, 2017; 12:00:49
                                                                                
*RUN   1        : UYSB                      CRGRO046 UYSB1240    1              
 MODEL          : CRGRO046 - Soybean                                            
 EXPERIMENT     : UYSB1240 SN late to create DSS                                
 DATA PATH      :                                                               
 TREATMENT  1   : UYSB                      CRGRO046                            
  
@YEAR DOY   DAS   DAP   TWAD    PHAD    CMAD    CGRD    GRAD    MRAD    CHAD   CL%D   CS%D   TGNN   TGAV    GN%D    GL%D    GC%D
 1990 152     4     0      0  0.0000  0.0000  0.0000  0.0000  0.0000 0.00000  0.000  0.000 15.559 11.813  0.0000  0.0000  0.0000
 1990 153     5     1      0  0.0000  0.0000  0.0000  0.0000  0.0000 0.00000  0.000  0.000 13.885 10.339  0.0000  0.0000  0.0000
 1990 154     6     2      0  0.0000  0.0000  0.0000  0.0000  0.0000 0.00000  0.000  0.000 20.374 17.891  0.0000  0.0000  0.0000
 1990 155     7     3      0  0.0000  0.0000  0.0000  0.0000  0.0000 0.00000  0.000  0.000 18.693 17.005  0.0000  0.0000  0.0000
 1990 156     8     4      0  0.0000  0.0000  0.0000  0.0000  0.0000 0.00000  0.000  0.000 13.560 10.153  0.0000  0.0000  0.0000
 1990 157     9     5      0  0.0000  0.0000  0.0000  0.0000  0.0000 0.00000  0.000  0.000 13.721  9.654  0.0000  0.0000  0.0000
 1990 158    10     6      0  0.0000  0.0000  0.0000  0.0000  0.0000 0.00000  0.000  0.000 13.686  9.423  0.0000  0.0000  0.0000
 1990 159    11     7      0  0.0000  0.0000  0.0000  0.0000  0.0000 0.00000  0.000  0.000 15.023 11.125  0.0000  0.0000  0.0000
 1990 160    12     8      0  0.0000  0.0000  0.0000  0.0000  0.0000 0.00000  0.000  0.000 12.076  9.170  0.0000  0.0000  0.0000
 1990 161    13     9      0  0.0000  0.0000  0.0000  0.0000  0.0000 0.00000  0.000  0.000  8.873  5.970  0.0000  0.0000  0.0000
 1990 162    14    10      0  0.0000  0.0000  0.0000  0.0000  0.0000 0.00000  0.000  0.000  9.385  4.998  0.0000  0.0000  0.0000
 1990 163    15    11      0  0.0000  0.0000  0.0000  0.0000  0.0000 0.00000  0.000  0.000  8.452  6.276  0.0000  0.0000  0.0000
 1990 164    16    12      0  0.0000  0.0000  0.0000  0.0000  0.0000 0.00000  0.000  0.000 11.800 10.449  0.0000  0.0000  0.0000
 1990 165    17    13      0  0.0000  0.0000  0.0000  0.0000  0.0000 0.00000  0.000  0.000 13.082 11.105  0.0000  0.0000  0.0000
 1990 166    18    14      0  0.0000  0.0000  0.0000  0.0000  0.0000 0.00000  0.000  0.000  8.809  5.976  0.0000  0.0000  0.0000
 1990 167    19    15      0  0.0000  0.0000  0.0000  0.0000  0.0000 0.00000  0.000  0.000 13.304  7.772  0.0000  0.0000  0.0000
 1990 168    20    16      8  0.0000  0.0002  0.0001  0.0001  0.0000 0.00000  3.977  7.953 16.966 11.830  0.0000  0.0000  0.0000
 1990 169    21    17      8  0.0751  0.0002  0.0479  0.0173  0.0036 0.00000  3.954  7.905 18.402 12.576  0.0000  0.0000  0.0000
 1990 170    22    18      8  0.0140  0.0001  0.0079  0.0037  0.0013 0.00000  3.942  7.880 11.856  9.849  0.0000  0.0000  0.0000
 1990 171    23    19      8  0.0063  0.0000  0.0036  0.0015  0.0007 0.00000  3.941  7.876  7.936  5.599  0.0000  0.0000  0.0000
 1990 172    24    20      8  0.0124  0.0001  0.0072  0.0033  0.0008 0.00000  3.936  7.866  9.561  4.723  0.0000  0.0000  0.0000
 1990 173    25    21      8  0.0194  0.0001  0.0118  0.0050  0.0010 0.00000  3.931  7.853 10.290  6.242  0.0000  0.0000  0.0000
 1990 174    26    22      8  0.0201  0.0001  0.0121  0.0052  0.0011 0.00000  3.923  7.837 11.558  7.313  0.0000  0.0000  0.0000
 1990 175    27    23      8  0.0364  0.0001  0.0224  0.0092  0.0018 0.00000  3.912  7.812 12.704 10.170  0.0000  0.0000  0.0000
 1990 176    28    24      9  0.0385  0.0001  0.0243  0.0094  0.0015 0.00000  3.905  7.796 12.395  7.754  0.0000  0.0000  0.0000
 1990 177    29    25      9  0.0574  0.0002  0.0367  0.0135  0.0023 0.00000  3.893  7.774 14.646  9.181  0.0000  0.0000  0.0000
 1990 178    30    26      9  0.0485  0.0002  0.0308  0.0114  0.0022 0.00000  3.881  7.750 14.654  9.945  0.0000  0.0000  0.0000
 1990 179    31    27     10  0.0669  0.0002  0.0429  0.0154  0.0030 0.00000  3.866  7.725 15.834 11.091  0.0000  0.0000  0.0000
 1990 180    32    28     10  0.0525  0.0002  0.0335  0.0121  0.0023 0.00000  3.856  7.707 13.629  9.774  0.0000  0.0000  0.0000
 1990 181    33    29     10  0.0584  0.0003  0.0361  0.0139  0.0034 0.00000  3.837  7.665 15.397 12.991  0.0000  0.0000  0.0000
 1990 182    34    30     11  0.0928  0.0003  0.0597  0.0210  0.0043 0.00000  3.820  7.639 16.655 12.831  0.0000  0.0000  0.0000
 1990 183    35    31     11  0.0390  0.0003  0.0237  0.0095  0.0027 0.00000  3.805  7.605 14.896 11.730  0.0000  0.0000  0.0000
 1990 184    36    32     11  0.0269  0.0003  0.0153  0.0071  0.0024 0.00000  3.790  7.569 13.080 11.695  0.0000  0.0000  0.0000
 1990 185    37    33     11  0.0404  0.0003  0.0241  0.0101  0.0031 0.00000  3.772  7.527 14.991 12.713  0.0000  0.0000  0.0000
 1990 186    38    34     11  0.0416  0.0005  0.0244  0.0101  0.0041 0.00000  3.745  7.466 16.526 15.205  0.0000  0.0000  0.0000
 1990 187    39    35     12  0.0684  0.0005  0.0423  0.0153  0.0055 0.00000  3.715  7.414 18.282 16.134  0.0000  0.0000  0.0000
 1990 188    40    36     12  0.0378  0.0004  0.0220  0.0097  0.0034 0.00000  3.697  7.368 14.820 13.332  0.0000  0.0000  0.0000
 1990 189    41    37     12  0.0610  0.0005  0.0372  0.0137  0.0055 0.00000  3.667  7.315 18.273 16.255  0.0000  0.0000  0.0000
 1990 190    42    38     13  0.0635  0.0004  0.0393  0.0148  0.0044 0.00000  3.649  7.283 15.841 13.921  0.0000  0.0000  0.0000
 1990 191    43    39     13  0.0481  0.0002  0.0305  0.0110  0.0025 0.00000  3.644  7.281 12.252  9.736  0.0000  0.0000  0.0000
 1990 192    44    40     14  0.1110  0.0003  0.0730  0.0240  0.0045 0.00000  3.637  7.301 15.387 11.079  0.0000  0.0000  0.0000
 1990 193    45    41     14  0.1008  0.0002  0.0663  0.0218  0.0040 0.00000  3.631  7.317 14.641 10.099  0.0000  0.0000  0.0000
 1990 194    46    42     15  0.1336  0.0004  0.0879  0.0283  0.0059 0.00000  3.621  7.332 16.746 12.202  0.0000  0.0000  0.0000
 1990 195    47    43     16  0.1099  0.0004  0.0713  0.0235  0.0059 0.00000  3.607  7.326 16.747 12.963  0.0000  0.0000  0.0000
 1990 196    48    44     16  0.1014  0.0006  0.0589  0.0274  0.0068 0.00000  3.602  7.280 17.874 14.586  0.0000  0.0000  0.0000
 1990 197    49    45     17  0.0670  0.0004  0.0389  0.0181  0.0047 0.00000  3.595  7.245 14.500 12.639  0.0000  0.0000  0.0000
 1990 198    50    46     17  0.0986  0.0004  0.0581  0.0270  0.0053 0.00000  3.596  7.219 14.589 12.394  0.0000  0.0000  0.0000
 1990 199    51    47     17  0.0293  0.0001  0.0171  0.0080  0.0018 0.00000  3.599  7.216  9.153  5.957  0.0000  0.0000  0.0000
 1990 200    52    48     17  0.0000  0.0000  0.0000  0.0000  0.0011 0.00000  3.598  7.214  6.581  2.950  0.0000  0.0000  0.0000
 1990 201    53    49     17  0.0000  0.0000  0.0000  0.0000  0.0010 0.00000  3.597  7.213  6.126  3.026  0.0000  0.0000  0.0000
 1990 202    54    50     17  0.0000  0.0000  0.0000  0.0000  0.0011 0.00000  3.596  7.211  6.568  3.364  0.0000  0.0000  0.0000
 1990 203    55    51     10  0.0000  0.0000  0.0000  0.0000  0.0010 0.00000  0.000  7.209  5.759  0.951  0.0000  0.0000  0.0000

*DSSAT Cropping System Model Ver. 4.6.1.000 -release      JUN 01, 2017; 12:00:49
                                                                                
*RUN   2        : UYSB                      CRGRO046 UYSB1240    1              
 MODEL          : CRGRO046 - Soybean                                            
 EXPERIMENT     : UYSB1240 SN late to create DSS                                
 DATA PATH      :                                                               
 TREATMENT  1   : UYSB                      CRGRO046                            
  
@YEAR DOY   DAS   DAP   TWAD    PHAD    CMAD    CGRD    GRAD    MRAD    CHAD   CL%D   CS%D   TGNN   TGAV    GN%D    GL%D    GC%D
 1991 152     4     0      0  0.0000  0.0000  0.0000  0.0000  0.0000 0.00000  0.000  0.000 24.130 20.184  0.0000  0.0000  0.0000
 1991 153     5     1      0  0.0000  0.0000  0.0000  0.0000  0.0000 0.00000  0.000  0.000 20.869 18.218  0.0000  0.0000  0.0000
 1991 154     6     2      0  0.0000  0.0000  0.0000  0.0000  0.0000 0.00000  0.000  0.000 17.919 14.740  0.0000  0.0000  0.0000
 1991 155     7     3      0  0.0000  0.0000  0.0000  0.0000  0.0000 0.00000  0.000  0.000 12.589 10.437  0.0000  0.0000  0.0000
 1991 156     8     4      0  0.0000  0.0000  0.0000  0.0000  0.0000 0.00000  0.000  0.000 12.687 11.297  0.0000  0.0000  0.0000
 1991 157     9     5      0  0.0000  0.0000  0.0000  0.0000  0.0000 0.00000  0.000  0.000  8.889  7.203  0.0000  0.0000  0.0000
 1991 158    10     6      0  0.0000  0.0000  0.0000  0.0000  0.0000 0.00000  0.000  0.000  8.306  5.133  0.0000  0.0000  0.0000
 1991 159    11     7      0  0.0000  0.0000  0.0000  0.0000  0.0000 0.00000  0.000  0.000  9.064  4.473  0.0000  0.0000  0.0000
 1991 160    12     8      0  0.0000  0.0000  0.0000  0.0000  0.0000 0.00000  0.000  0.000 11.326  5.780  0.0000  0.0000  0.0000
 1991 161    13     9      0  0.0000  0.0000  0.0000  0.0000  0.0000 0.00000  0.000  0.000 12.144  7.690  0.0000  0.0000  0.0000
 1991 162    14    10      0  0.0000  0.0000  0.0000  0.0000  0.0000 0.00000  0.000  0.000 17.137 14.334  0.0000  0.0000  0.0000
 1991 163    15    11      0  0.0000  0.0000  0.0000  0.0000  0.0000 0.00000  0.000  0.000 13.425 11.810  0.0000  0.0000  0.0000
 1991 164    16    12      8  0.0000  0.0001  0.0001  0.0000  0.0000 0.00000  3.988  7.974 11.536  9.790  0.0000  0.0000  0.0000
 1991 165    17    13      8  0.0374  0.0003  0.0217  0.0093  0.0033 0.00000  3.951  7.896 18.654 15.887  0.0000  0.0000  0.0000
 1991 166    18    14      8  0.0260  0.0003  0.0146  0.0067  0.0026 0.00000  3.920  7.830 15.730 14.578  0.0000  0.0000  0.0000
 1991 167    19    15      8  0.0249  0.0002  0.0141  0.0065  0.0023 0.00000  3.896  7.776 15.190 13.379  0.0000  0.0000  0.0000
 1991 168    20    16      8  0.0308  0.0003  0.0174  0.0079  0.0031 0.00000  3.863  7.704 16.450 15.627  0.0000  0.0000  0.0000
 1991 169    21    17      8  0.0620  0.0004  0.0378  0.0138  0.0054 0.00000  3.823  7.626 22.247 18.133  0.0000  0.0000  0.0000
 1991 170    22    18      9  0.0522  0.0002  0.0319  0.0132  0.0026 0.00000  3.811  7.593 13.497 12.147  0.0000  0.0000  0.0000
 1991 171    23    19      9  0.0198  0.0001  0.0113  0.0051  0.0016 0.00000  3.801  7.569 11.597 10.247  0.0000  0.0000  0.0000
 1991 172    24    20      9  0.0218  0.0001  0.0134  0.0052  0.0012 0.00000  3.797  7.560 10.749  7.985  0.0000  0.0000  0.0000
 1991 173    25    21      9  0.0158  0.0001  0.0095  0.0038  0.0011 0.00000  3.793  7.551 10.417  7.455  0.0000  0.0000  0.0000
 1991 174    26    22      9  0.0255  0.0001  0.0162  0.0059  0.0011 0.00000  3.791  7.549  9.741  6.516  0.0000  0.0000  0.0000
 1991 175    27    23      9  0.0380  0.0001  0.0242  0.0088  0.0014 0.00000  3.787  7.545 11.696  6.759  0.0000  0.0000  0.0000
 1991 176    28    24     10  0.0678  0.0002  0.0439  0.0150  0.0027 0.00000  3.778  7.540 14.559 10.313  0.0000  0.0000  0.0000
 1991 177    29    25     10  0.0396  0.0004  0.0233  0.0096  0.0035 0.00000  3.752  7.481 16.599 14.953  0.0000  0.0000  0.0000
 1991 178    30    26     10  0.0330  0.0003  0.0245  0.0065  0.0026 0.00000  3.747  7.443 14.748 12.575  0.0000  0.0000  0.0000
 1991 179    31    27     10  0.0273  0.0001  0.0172  0.0062  0.0015 0.00000  3.742  7.439 10.425  8.514  0.0000  0.0000  0.0000
 1991 180    32    28     10  0.0654  0.0001  0.0423  0.0144  0.0023 0.00000  3.737  7.446 12.727  9.169  0.0000  0.0000  0.0000
 1991 181    33    29     11  0.0611  0.0002  0.0394  0.0132  0.0026 0.00000  3.729  7.445 14.104  9.457  0.0000  0.0000  0.0000
 1991 182    34    30     12  0.1141  0.0003  0.0743  0.0242  0.0049 0.00000  3.716  7.448 16.231 12.670  0.0000  0.0000  0.0000
 1991 183    35    31     12  0.1074  0.0003  0.0706  0.0224  0.0043 0.00000  3.707  7.455 15.797 11.279  0.0000  0.0000  0.0000
 1991 184    36    32     12  0.0170  0.0000  0.0110  0.0033  0.0012 0.00000  3.706  7.460  7.643  6.653  0.0000  0.0000  0.0000
 1991 185    37    33     12  0.0000  0.0000  0.0000  0.0000  0.0008 0.00000  3.705  7.457  7.076  4.170  0.0000  0.0000  0.0000
 1991 186    38    34     12  0.0225  0.0001  0.0140  0.0052  0.0013 0.00000  3.703  7.451  9.967  5.079  0.0000  0.0000  0.0000
 1991 187    39    35     13  0.0757  0.0002  0.0489  0.0166  0.0034 0.00000  3.695  7.446 13.850 10.743  0.0000  0.0000  0.0000
 1991 188    40    36     13  0.0757  0.0002  0.0492  0.0163  0.0033 0.00000  3.688  7.443 14.325  9.960  0.0000  0.0000  0.0000
 1991 189    41    37     14  0.0518  0.0003  0.0323  0.0116  0.0036 0.00000  3.675  7.417 15.586 11.914  0.0000  0.0000  0.0000
 1991 190    42    38     14  0.1125  0.0006  0.0715  0.0231  0.0084 0.00000  3.644  7.378 21.042 16.839  0.0000  0.0000  0.0000
 1991 191    43    39     15  0.0381  0.0001  0.0241  0.0084  0.0022 0.00000  3.641  7.374 11.074  8.591  0.0000  0.0000  0.0000
 1991 192    44    40     15  0.0096  0.0000  0.0055  0.0021  0.0012 0.00000  3.640  7.371  8.212  5.628  0.0000  0.0000  0.0000
 1991 193    45    41     15  0.0000  0.0000  0.0000  0.0000  0.0009 0.00000  3.639  7.370  6.566  4.212  0.0000  0.0000  0.0000
 1991 194    46    42     15  0.0000  0.0000  0.0000  0.0000  0.0009 0.00000  3.639  7.368  6.195  3.110  0.0000  0.0000  0.0000
 1991 195    47    43     15  0.0000  0.0000  0.0000  0.0000  0.0010 0.00000  3.637  7.364  7.483  3.599  0.0000  0.0000  0.0000
 1991 196    48    44     15  0.0164  0.0001  0.0096  0.0041  0.0014 0.00000  3.635  7.356  9.444  4.561  0.0000  0.0000  0.0000
 1991 197    49    45     15  0.0676  0.0003  0.0399  0.0181  0.0035 0.00000  3.637  7.338 13.815 10.424  0.0000  0.0000  0.0000
 1991 198    50    46     16  0.1345  0.0006  0.0793  0.0360  0.0083 0.00000  3.634  7.292 19.414 15.388  0.0000  0.0000  0.0000
 1991 199    51    47     16  0.0528  0.0004  0.0304  0.0141  0.0042 0.00000  3.624  7.257 15.151 12.421  0.0000  0.0000  0.0000
 1991 200    52    48     17  0.0891  0.0002  0.0628  0.0208  0.0037 0.00000  3.643  7.248 13.000  9.868  0.0000  0.0000  0.0000
 1991 201    53    49     18  0.2149  0.0009  0.1622  0.0387  0.0144 0.00000  3.661  7.227 21.781 17.980  0.0000  0.0000  0.0000
 1991 202    54    50     18  0.0425  0.0003  0.0307  0.0088  0.0033 0.00000  3.667  7.207 11.784 10.182  0.0000  0.0000  0.0000
 1991 203    55    51     18  0.0150  0.0000  0.0044  0.0044  0.0019 0.00000  3.656  7.205  8.020  7.419  0.0000  0.0000  0.0000
 1991 204    56    52     19  0.0355  0.0001  0.0243  0.0075  0.0021 0.00000  3.658  7.206  9.063  7.258  0.0000  0.0000  0.0000
 1991 205    57    53     19  0.1190  0.0002  0.0842  0.0242  0.0042 0.00000  3.672  7.214 13.044  8.495  0.0000  0.0000  0.0000
 1991 206    58    54     20  0.1429  0.0003  0.0904  0.0302  0.0051 0.00000  3.675  7.225 13.868  9.181  0.0000  0.0000  0.0000
 1991 207    59    55     22  0.3319  0.0008  0.2302  0.0604  0.0172 0.00000  3.690  7.266 20.888 15.896  0.0000  0.0000  0.0000
 1991 208    60    56     25  0.4319  0.0011  0.2924  0.0778  0.0261 0.00000  3.700  7.311 23.581 17.913  0.0000  0.0000  0.0000
 1991 209    61    57     28  0.4894  0.0015  0.3172  0.0929  0.0332 0.00000  3.699  7.325 23.788 19.726  0.0000  0.0000  0.0000
 1991 210    62    58     31  0.4704  0.0018  0.2759  0.0994  0.0346 0.00000  3.644  7.314 23.317 20.259  0.0000  0.0000  0.0000
 1991 211    63    59     32  0.1514  0.0010  0.0568  0.0438  0.0115 0.00000  3.601  7.265 17.848 14.014  0.0000  0.0000  0.0000
 1991 212    64    60     33  0.2096  0.0005  0.1185  0.0549  0.0082 0.00000  3.598  7.268 13.384 10.085  0.0000  0.0000  0.0000
 1991 213    65    61     33  0.0000  0.0000  0.0000  0.0000  0.0018 0.00000  3.598  7.268  5.270  3.248  0.0000  0.0000  0.0000
 1991 214    66    62     33  0.0000  0.0001  0.0000  0.0000  0.0021 0.00000  3.596  7.264  7.270  3.425  0.0000  0.0000  0.0000
 1991 215    67    63     33  0.0548  0.0002  0.0263  0.0160  0.0032 0.00000  3.592  7.259  9.293  4.972  0.0000  0.0000  0.0000
 1991 216    68    64     33  0.0413  0.0002  0.0209  0.0106  0.0036 0.00000  3.590  7.253  9.499  7.168  0.0000  0.0000  0.0000
 1991 217    69    65     35  0.2332  0.0004  0.1597  0.0442  0.0080 0.00000  3.608  7.271 12.835  9.216  0.0000  0.0000  0.0000
 1991 218    70    66     35  0.0163  0.0001  0.0000  0.0074  0.0028 0.00000  3.595  7.267  8.127  5.486  0.0000  0.0000  0.0000
 1991 219    71    67     35  0.1328  0.0004  0.0697  0.0318  0.0063 0.00000  3.587  7.260 12.767  8.328  0.0000  0.0000  0.0000
 1991 220    72    68     37  0.2896  0.0008  0.1759  0.0627  0.0123 0.00000  3.588  7.267 14.858 11.737  0.0000  0.0000  0.0000
 1991 221    73    69     38  0.1693  0.0010  0.0973  0.0393  0.0112 0.00000  3.581  7.232 14.642 12.843  0.0000  0.0000  0.0000
 1991 222    74    70     39  0.0973  0.0005  0.0565  0.0225  0.0067 0.00000  3.579  7.217 11.144  9.853  0.0000  0.0000  0.0000
 1991 223    75    71     40  0.1463  0.0004  0.0898  0.0323  0.0070 0.00000  3.581  7.220 11.614  9.062  0.0000  0.0000  0.0000
 1991 224    76    72     41  0.2289  0.0005  0.1448  0.0495  0.0082 0.00000  3.584  7.238 12.977  8.107  0.0000  0.0000  0.0000
 1991 225    77    73     43  0.4000  0.0010  0.2538  0.0846  0.0173 0.00000  3.583  7.265 16.297 12.479  0.0000  0.0000  0.0000
 1991 226    78    74     49  0.8526  0.0021  0.5735  0.1683  0.0493 0.00000  3.612  7.312 22.780 17.695  0.0000  0.0000  0.0000
 1991 227    79    75     54  0.8101  0.0030  0.5233  0.1640  0.0585 0.00000  3.621  7.316 23.367 19.985  0.0000  0.0000  0.0000
 1991 228    80    76     60  1.0355  0.0034  0.6726  0.2063  0.0747 0.00000  3.635  7.337 24.791 20.380  0.0000  0.0000  0.0000
 1991 229    81    77     68  1.2054  0.0031  0.8231  0.2410  0.0686 0.00000  3.653  7.382 22.201 17.785  0.0000  0.0000  0.0000
 1991 230    82    78     73  0.8843  0.0037  0.5277  0.2054  0.0605 0.00000  3.614  7.366 21.831 18.336  0.0000  0.0000  0.0000
 1991 231    83    79     81  1.2486  0.0039  0.8293  0.2582  0.0771 0.00000  3.629  7.381 23.097 17.917  0.0000  0.0000  0.0000
 1991 232    84    80     87  1.0858  0.0045  0.6486  0.2552  0.0759 0.00000  3.597  7.359 23.280 18.405  0.0000  0.0000  0.0000
 1991 233    85    81     97  1.6489  0.0048  1.0711  0.3487  0.1014 0.00000  3.615  7.378 23.253 18.303  0.0000  0.0000  0.0000
 1991 234    86    82    108  1.8193  0.0063  1.1860  0.3721  0.1287 0.00000  3.625  7.381 24.157 20.098  0.0000  0.0000  0.0000
 1991 235    87    83    120  1.8389  0.0059  1.1822  0.3968  0.1072 0.00000  3.623  7.389 20.256 17.811  0.0000  0.0000  0.0000
 1991 236    88    84    129  1.6081  0.0048  0.9464  0.3924  0.0788 0.00000  3.593  7.391 18.664 14.940  0.0000  0.0000  0.0000
 1991 237    89    85    141  1.9735  0.0069  1.2729  0.4491  0.1202 0.00000  3.623  7.369 22.146 17.453  0.0000  0.0000  0.0000
 1991 238    90    86    144  0.6704  0.0052  0.2961  0.1977  0.0506 0.00000  3.585  7.325 15.965 14.238  0.0000  0.0000  0.0000
 1991 239    91    87    147  0.6027  0.0044  0.3211  0.1597  0.0434 0.00000  3.564  7.293 15.082 13.008  0.0000  0.0000  0.0000
 1991 240    92    88    157  1.6625  0.0070  0.9965  0.4083  0.1010 0.00000  3.557  7.271 19.674 16.456  0.0000  0.0000  0.0000
 1991 241    93    89    169  2.0352  0.0090  1.2333  0.4878  0.1386 0.00000  3.550  7.244 21.247 18.337  0.0000  0.0000  0.0000
 1991 242    94    90    180  1.8388  0.0109  1.1005  0.4326  0.1540 0.00000  3.533  7.197 22.690 19.847  0.0000  0.0000  0.0000
 1991 243    95    91    185  0.9176  0.0061  0.5611  0.2187  0.0627 0.00000  3.523  7.172 15.737 13.723  0.0000  0.0000  0.0000
 1991 244    96    92    192  1.2343  0.0045  0.7700  0.2993  0.0588 0.00000  3.526  7.171 14.639 11.860  0.0000  0.0000  0.0000
 1991 245    97    93    199  1.0623  0.0071  0.6494  0.2521  0.0745 0.00000  3.515  7.144 16.681 14.352  0.0000  0.0000  0.0000
 1991 246    98    94    215  2.6797  0.0111  1.6352  0.6350  0.1767 0.00596  3.537  7.206 21.206 18.143  0.0000  0.0000  0.0000
 1991 247    99    95    245  4.8224  0.0000  3.0487  0.9040  0.2992 0.17446  4.195  9.046 23.527 19.137  0.0000  0.0000  0.0000
 1991 248   100    96    281  5.6043  0.0000  3.3139  0.9704  0.3795 0.47572  5.524 12.819 24.810 20.173  0.0000  0.0000  0.0000
 1991 249   101    97    293  2.2966  0.0270  1.0798  0.6264  0.2050 0.02492  5.404 12.625 21.337 19.068  0.0000  0.0000  0.0000
 1991 250   102    98    301  1.6832  0.0181  0.5441  0.5603  0.1207 0.01496  5.283 12.500 16.416 14.879  0.0000  0.0000  0.0000
 1991 251   103    99    309  1.7292  0.0154  0.6447  0.5436  0.1092 0.02023  5.222 12.431 15.929 13.621  0.0000  0.0000  0.0000
 1991 252   104   100    333  3.9936  0.0164  2.4859  0.8971  0.1795 0.08792  5.312 12.558 17.949 13.890  0.0000  0.0000  0.0000
 1991 253   105   101    368  5.3435  0.0230  3.5428  1.0925  0.2694 0.14338  5.460 12.809 19.923 15.790  0.0000  0.0000  0.0000
 1991 254   106   102    417  7.3164  0.0000  4.2379  1.1860  0.4133 0.84652  6.847 16.593 22.510 17.532  0.0000  0.0000  0.0000
 1991 255   107   103    473  8.5904  0.0000  4.7831  1.2893  0.6224 1.18012  8.437 20.779 25.408 20.601  0.0000  0.0000  0.0000
 1991 256   108   104    521  7.7990  0.0000  4.7119  1.3117  0.7378 0.43877  8.685 21.153 28.161 23.034  0.0000  0.0000  0.0000
 1991 257   109   105    536  2.7638  0.0476  1.3575  0.7248  0.2036 0.09094  8.569 20.926 18.714 14.075  0.0000  0.0000  0.0000
 1991 258   110   106    541  1.3353  0.0217  0.0000  0.8127  0.0974 0.00000  8.408 20.764 11.593 10.151  0.0000  0.0000  0.0000
 1991 259   111   107    577  6.2162  0.0733  3.7463  1.3186  0.4256 0.28838  8.428 20.600 21.593 17.685  0.0000  0.0000  0.0000
 1991 260   112   108    599  3.9952  0.0882  2.4045  0.7842  0.3848 0.20274  8.432 20.461 20.416 19.006  0.0000  0.0000  0.0000
 1991 261   113   109    655  7.8594  0.0000  3.4757  0.7954  0.4327 2.42693 10.868 26.887 18.575 16.248  0.0000  0.0000  0.0000
 1991 262   114   110    695  6.0983  0.0629  3.9121  1.1502  0.2752 0.34135 10.803 26.520 15.857 12.858  0.0000  0.0000  0.0000
 1991 263   115   111    734  6.6058  0.0921  3.8979  1.2998  0.3972 0.35963 10.737 26.179 20.183 15.133  0.0000  0.0000  0.0000
 1991 264   116   112    779  7.9655  0.1514  4.6243  1.5700  0.6868 0.44900 10.680 25.825 24.991 19.726  0.0000  0.0000  0.0000
 1991 265   117   113    830  8.3836  0.1015  4.8880  1.7614  0.4558 0.49910 10.664 25.628 18.623 15.088  0.0000  0.0000  0.0000
 1991 266   118   114    859  4.9709  0.0484  2.4929  1.2684  0.2118 0.26000 10.586 25.497 14.612  9.766  0.0000  0.0000  0.0000
 1991 267   119   115    900  6.8213  0.0685  3.9765  1.4651  0.3110 0.43619 10.596 25.424 16.655 11.666  0.0000  0.0000  0.0000
 1991 268   120   116    956  8.8047  0.1109  5.4296  1.7324  0.4885 0.60934 10.632 25.364 19.046 14.656  0.0000  0.0000  0.0000
 1991 269   121   117   1022 10.3623  0.0000  6.1659  1.8033  0.6046 0.84693 10.843 25.730 20.826 15.301  0.0000  0.0000  0.0000
 1991 270   122   118   1102 12.6702  0.0000  6.9808  1.9459  1.0964 1.54580 11.442 27.077 25.499 20.539  0.0000  0.0000  0.0000
 1991 271   123   119   1143  7.0683  0.1039  4.0871  1.4958  0.3655 0.47249 11.455 27.030 14.938 12.421  0.0000  0.0000  0.0000
 1991 272   124   120   1189  7.7178  0.1107  4.4899  1.6019  0.4065 0.53800 11.480 27.007 16.288 12.565  0.0000  0.0000  0.0000
 1991 273   125   121   1250  9.6840  0.1609  5.9371  1.7874  0.5852 0.75500 11.527 27.017 18.495 14.770  0.0000  0.0000  0.0000
 1991 274   126   122   1294  7.5504  0.1203  4.3885  1.5487  0.4257 0.53517 11.557 27.020 16.556 12.511  0.0000  0.0000  0.0000
 1991 275   127   123   1341  7.6793  0.1127  4.5283  1.5451  0.4125 0.57674 11.596 27.050 16.353 11.846  0.0000  0.0000  0.0000
 1991 276   128   124   1391  8.1949  0.1199  4.8793  1.6100  0.4399 0.65471 11.641 27.100 17.231 11.551  0.0000  0.0000  0.0000
 1991 277   129   125   1447  9.3557  0.1661  5.3633  1.9030  0.5954 0.73238 11.689 27.143 19.237 13.768  0.0000  0.0000  0.0000
 1991 278   130   126   1455  2.9059  0.1289  0.8338  0.9924  0.3187 0.00000 11.586 26.981 13.122 12.056  0.0000  0.0000  0.0000
 1991 279   131   127   1472  3.3248  0.0679  1.7504  0.7699  0.2459 0.18530 11.574 26.963 11.627  9.672  0.0000  0.0000  0.0000
 1991 280   132   128   1495  3.6583  0.0680  2.2179  0.6814  0.2441 0.28140 11.600 26.991 12.588  8.961  0.0000  0.0000  0.0000
 1991 281   133   129   1537  6.6653  0.1000  4.0303  1.1986  0.3569 0.58500 11.657 27.080 14.853 10.229  0.0000  0.0000  0.0000
 1991 282   134   130   1599  9.8034  0.0000  5.3730  1.5455  0.6397 1.22704 11.979 27.804 18.766 13.928  0.0000  0.0000  0.0000
 1991 283   135   131   1678 12.4001  0.0000  6.5845  1.8597  0.8267 1.89172 12.498 29.028 20.615 14.957  0.0000  0.0000  0.0000
 1991 284   136   132   1769 14.3882  0.3047  8.6211  2.5237  1.0744 1.41239 12.590 29.125 22.462 16.660  0.0000  0.0000  0.0000
 1991 285   137   133   1873 17.3430  0.0000  9.4968  2.6748  1.6957 1.87280 12.945 29.804 26.563 20.509  0.0000  0.0000  0.0000
 1991 286   138   134   1960 16.5576  0.6563  8.9536  2.7975  2.5596 1.51769 12.982 29.734 30.991 26.360  0.0000  0.0000  0.0000
 1991 287   139   135   1971 11.2044  0.7404  6.1727  1.8247  2.1976 0.90752 12.960 29.520 30.322 26.438  0.0000  0.0000  0.0000
 1991 288   140   136   1983  7.6376  0.5721  4.2698  1.5102  1.2110 0.27393 12.913 29.265 22.595 20.492  6.1809 19.7494 33.1202
 1991 289   141   137   2001  4.8107  0.2961  2.9496  0.9272  0.6186 0.02626 12.915 29.132 16.852 14.642  6.3684 16.7942 34.9031
 1991 290   142   138   2018  6.2513  0.2824  3.4659  1.1951  0.5044 0.31382 12.946 29.080 14.842 12.132  6.5338 14.9102 35.7534
 1991 291   143   139   2087 12.5887  0.4013  7.0581  2.2040  0.9089 1.19246 13.059 29.218 19.512 14.840  6.5226 14.8291 35.9046
 1991 292   144   140   2178 15.8892  0.0000  8.4852  2.4308  1.3532 1.93143 13.489 30.073 22.543 17.692  6.4473 15.6273 35.5769
 1991 293   145   141   2261 16.6387  0.6448  9.1586  3.0517  1.5214 1.71524 13.606 30.205 23.031 18.607  6.3907 16.3024 35.2554
 1991 294   146   142   2346 17.3174  0.8248  9.8909  2.8937  2.0970 1.84362 13.700 30.288 27.287 21.791  6.3540 17.1305 34.6571
 1991 295   147   143   2375 15.5414  1.0121  8.2209  2.7899  2.4845 1.42404 13.693 30.157 28.388 24.783  6.3715 17.8263 33.8518
 1991 296   148   144   2373  5.6520  0.6458  3.1933  1.4553  0.8351 0.00000 13.554 29.807 18.131 15.810  6.3751 17.3804 34.2749
 1991 297   149   145   2384  4.4580  0.5599  2.5118  1.2174  0.6432 0.00000 13.425 29.496 16.330 13.758  6.4270 16.5625 34.7689
 1991 298   150   146   2399  6.5784  0.5413  3.9022  1.3721  1.1025 0.07330 13.389 29.282 20.426 18.318  6.3838 16.9197 34.6814
 1991 299   151   147   2479 16.2462  0.8907  9.2456  3.1326  1.8396 1.24525 13.395 29.199 23.630 20.558  6.3476 17.4293 34.3982
 1991 300   152   148   2511  9.8274  0.8600  5.7713  2.1651  1.3568 0.15616 13.277 28.806 22.034 18.961  6.3236 17.6432 34.3340
 1991 301   153   149   2523  6.0196  0.6696  3.8067  1.2526  1.0372 0.04162 13.200 28.500 19.337 17.479  6.3138 17.6408 34.3979
 1991 302   154   150   2527  4.9431  0.7454  3.1975  1.1422  0.8572 0.00000 13.072 28.108 16.566 15.994  6.3209 17.4417 34.5529
 1991 303   155   151   2540  5.2495  0.7620  3.0922  1.3501  0.8975 0.00000 12.914 27.689 17.504 16.289  6.3235 17.3125 34.6655
 1991 304   156   152   2534  6.0899  0.8238  3.7659  1.4203  1.0679 0.00000 12.755 27.238 19.814 17.633  6.3144 17.3648 34.6705
 1991 305   157   153   2551 11.3953  0.8340  6.7814  2.3675  1.3221 0.55473 12.679 26.989 21.054 17.979  6.3029 17.4562 34.6508
 1991 306   158   154   2616 13.2713  0.8119  7.7189  2.8046  1.3185 0.84372 12.643 26.860 20.842 17.229  6.2981 17.4468 34.6900
 1991 307   159   155   2636 12.3019  0.8621  7.2013  2.6566  1.3720 0.59261 12.562 26.615 21.361 17.783  6.2903 17.5035 34.6820
 1991 308   160   156   2688 15.4470  0.3890  8.3779  3.0746  1.6248 1.04928 12.712 26.891 23.120 18.433  6.2794 17.6253 34.6283
 1991 309   161   157   2745 14.1214  0.9824  8.0323  3.1371  1.7432 0.56000 12.595 26.565 24.083 19.538  6.2665 17.8314 34.5030
 1991 310   162   158   2762  9.4206  1.0266  5.2623  2.3275  1.6060 0.00000 12.397 26.004 23.144 20.246  6.2557 18.0496 34.3524
 1991 311   163   159   2785 12.2862  0.9338  6.5542  3.1345  1.4756 0.13666 12.232 25.541 21.505 18.248  6.2511 18.0764 34.3542
 1991 312   164   160   2822 10.5419  0.8752  5.8111  2.7909  1.2455 0.00201 12.058 25.051 20.123 16.902  6.2552 17.9745 34.4305
 1991 313   165   161   2867 12.9263  0.8596  7.1819  3.0799  1.3572 0.49690 11.954 24.779 21.820 16.558  6.2605 17.8684 34.5034
 1991 314   166   162   2889 11.5346  0.9455  6.1063  2.8786  1.5713 0.20920 11.788 24.334 23.668 18.513  6.2555 17.9242 34.4789
 1991 315   167   163   2916  7.9095  0.7894  4.5958  2.1823  0.9344 0.00000 11.626 23.881 17.748 14.561  6.2765 17.6469 34.6250
 1991 316   168   164   2908  8.5387  0.7187  4.7485  2.2817  0.8146 0.27823 11.518 23.596 17.232 12.720  6.3068 17.2999 34.7826
 1991 317   169   165   2937  8.3815  0.7855  4.8139  2.3367  1.0002 0.00000 11.349 23.133 19.236 14.724  6.3216 17.0962 34.8937
 1991 318   170   166   2942  4.9320  0.8270  3.1624  1.3338  0.9949 0.00000 11.165 22.639 18.811 16.017  6.3251 17.0195 34.9484
 1991 319   171   167   2959  7.5047  0.8863  4.2564  1.9801  1.3243 0.00000 10.960 22.098 21.058 18.121  6.3168 17.1116 34.9084
 1991 320   172   168   2977 10.3398  0.8570  5.5543  2.7212  1.4094 0.03288 10.763 21.584 21.658 17.682  6.3115 17.1609 34.8925
 1991 321   173   169   2971 10.4749  0.8263  5.5738  2.7775  1.3627 0.13157 10.585 21.136 21.378 17.187  6.3088 17.1733 34.8967
 1991 322   174   170   3018 13.0738  0.9009  6.6113  3.2918  1.9247 0.28934 10.407 20.718 25.105 20.197  6.2993 17.3486 34.7808
 1991 323   175   171   3039 11.6527  0.8175  6.2171  3.0700  1.4367 0.18272 10.232 20.294 20.265 17.578  6.2958 17.3732 34.7780
 1991 324   176   172   3066 11.9990  0.8404  6.1271  3.1784  1.6554 0.14404 10.040 19.826 22.830 18.746  6.2893 17.4583 34.7336
 1991 325   177   173   3111 13.8583  0.8799  7.1030  3.3155  2.1088 0.44817  9.887 19.511 26.388 20.619  6.2827 17.6026 34.6307
 1991 326   178   174   3131 13.4983  0.9311  6.3099  3.2203  2.7128 0.32509  9.696 19.088 30.627 23.639  6.2858 17.7671 34.4467
 1991 327   179   175   3143 12.4257  0.9811  5.6325  2.8312  3.2665 0.21671  9.464 18.557 32.915 26.931  6.3044 17.9157 34.1815
 1991 328   180   176   3151  4.3596  0.7158  2.6918  1.1883  1.0711 0.00552  9.267 18.066 18.376 16.477  6.3087 17.8526 34.2181
 1991 329   181   177   3140  4.2473  0.6819  2.5747  1.1714  1.0723 0.01111  9.078 17.596 18.173 16.524  6.3156 17.7922 34.2350
 1991 330   182   178   3140  6.1626  0.6050  3.3335  1.8051  1.1386 0.02735  8.914 17.185 19.166 16.442  6.3313 17.7017 34.2275
 1991 331   183   179   3150  9.5160  0.6996  4.7421  2.6242  1.4405 0.00000  8.699 16.666 22.367 17.528  6.3226 17.7102 34.2737
 1991 332   184   180   3164 10.6009  0.7766  5.0087  2.6082  2.1543 0.00000  8.451 16.078 27.088 22.035  6.3129 17.8552 34.1894
 1991 333   185   181   3171  8.4630  0.6681  3.9939  2.1965  1.9982 0.02746  8.247 15.588 24.707 22.341  6.3223 17.9550 34.0305
 1991 334   186   182   3193 11.6096  0.7408  5.3132  2.9600  2.2824 0.05834  8.007 15.045 26.754 22.919  6.3164 18.0891 33.9334
 1991 335   187   183   3229 10.2188  0.0000  3.7983  1.6356  1.9480 1.67807  8.576 16.583 26.019 21.287  6.2527 18.2962 34.1243
 1991 336   188   184   3136 10.8612  0.0000  3.7888  1.7766  2.2143 1.94976  9.162 17.845 28.052 22.604  6.2020 18.4894 34.2479
 1991 337   189   185   3030  5.9835  0.7783  2.9071  1.5550  1.8256 0.00000  8.765 16.751 26.222 22.816  6.2042 18.5499 34.1737
 1991 338   190   186   2960  6.7906  0.6760  3.0493  1.5970  2.0039 0.00000  8.375 15.756 29.430 23.910  6.1723 18.6872 34.2362
 1991 339   191   187   2890  3.5412  0.5869  1.6457  0.7583  1.5523 0.00000  8.002 14.859 26.092 22.866  6.1740 18.7166 34.1959
 1991 340   192   188   2838  4.0859  0.5433  1.6667  0.7664  1.8829 0.00000  7.626 14.015 30.071 25.446  6.1668 18.7722 34.1855
 1991 341   193   189   2789  2.3262  0.4724  0.9807  0.3339  1.4568 0.00000  7.274 13.260 26.621 23.467  6.1683 18.7889 34.1594
 1991 342   194   190   2748  2.3820  0.4275  0.9373  0.3541  1.4850 0.00000  6.935 12.567 28.181 23.844  6.1700 18.8045 34.1330
 1991 343   195   191   2712  0.8431  0.3618  0.1291  0.0370  1.0437 0.00000  6.616 11.961 22.279 20.881  6.1700 18.8059 34.1315
 1991 344   196   192   2683  1.3629  0.3532  0.3656  0.1049  1.2579 0.00000  6.299 11.373 25.905 22.966  6.1704 18.8118 34.1231
 1991 345   197   193   2657  0.9355  0.3225  0.0595  0.0171  1.1835 0.00000  5.992 10.831 26.226 22.534  6.1705 18.8128 34.1218
 1991 346   198   194   2636  0.4308  0.2811  0.0000  0.0000  0.9365 0.00000  5.716 10.351 22.840 20.260  6.1705 18.8128 34.1218
 1991 347   199   195   2618  0.7475  0.2753  0.0000  0.0000  1.1042 0.00000  5.439  9.882 26.628 21.862  6.1705 18.8128 34.1218

*DSSAT Cropping System Model Ver. 4.6.1.000 -release      JUN 01, 2017; 12:00:49
                                                                                
*RUN   3        : UYSB                      CRGRO046 UYSB1240    1              
 MODEL          : CRGRO046 - Soybean                                            
 EXPERIMENT     : UYSB1240 SN late to create DSS                                
 DATA PATH      :                                                               
 TREATMENT  1   : UYSB                      CRGRO046                            
  
@YEAR DOY   DAS   DAP   TWAD    PHAD    CMAD    CGRD    GRAD    MRAD    CHAD   CL%D   CS%D   TGNN   TGAV    GN%D    GL%D    GC%D
 1992 152     4     0      0  0.0000  0.0000  0.0000  0.0000  0.0000 0.00000  0.000  0.000 14.095  9.023  0.0000  0.0000  0.0000
 1992 153     5     1      0  0.0000  0.0000  0.0000  0.0000  0.0000 0.00000  0.000  0.000 15.105 10.367  0.0000  0.0000  0.0000
 1992 154     6     2      0  0.0000  0.0000  0.0000  0.0000  0.0000 0.00000  0.000  0.000 14.087 11.471  0.0000  0.0000  0.0000
 1992 155     7     3      0  0.0000  0.0000  0.0000  0.0000  0.0000 0.00000  0.000  0.000 14.850 11.574  0.0000  0.0000  0.0000
 1992 156     8     4      0  0.0000  0.0000  0.0000  0.0000  0.0000 0.00000  0.000  0.000 12.825  9.517  0.0000  0.0000  0.0000
 1992 157     9     5      0  0.0000  0.0000  0.0000  0.0000  0.0000 0.00000  0.000  0.000 16.599 15.839  0.0000  0.0000  0.0000
 1992 158    10     6      0  0.0000  0.0000  0.0000  0.0000  0.0000 0.00000  0.000  0.000 17.648 15.599  0.0000  0.0000  0.0000
 1992 159    11     7      0  0.0000  0.0000  0.0000  0.0000  0.0000 0.00000  0.000  0.000 19.639 18.186  0.0000  0.0000  0.0000
 1992 160    12     8      0  0.0000  0.0000  0.0000  0.0000  0.0000 0.00000  0.000  0.000 19.035 15.767  0.0000  0.0000  0.0000
 1992 161    13     9      0  0.0000  0.0000  0.0000  0.0000  0.0000 0.00000  0.000  0.000 10.093  8.575  0.0000  0.0000  0.0000
 1992 162    14    10      0  0.0000  0.0000  0.0000  0.0000  0.0000 0.00000  0.000  0.000 13.518 10.385  0.0000  0.0000  0.0000
 1992 163    15    11      0  0.0000  0.0000  0.0000  0.0000  0.0000 0.00000  0.000  0.000 11.535  8.733  0.0000  0.0000  0.0000
 1992 164    16    12      0  0.0000  0.0000  0.0000  0.0000  0.0000 0.00000  0.000  0.000 13.592  9.077  0.0000  0.0000  0.0000
 1992 165    17    13      0  0.0000  0.0000  0.0000  0.0000  0.0000 0.00000  0.000  0.000 17.676 14.942  0.0000  0.0000  0.0000
 1992 166    18    14      8  0.0000  0.0004  0.0002  0.0001  0.0000 0.00000  3.956  7.909 22.014 16.941  0.0000  0.0000  0.0000
 1992 167    19    15      8  0.0347  0.0004  0.0198  0.0080  0.0036 0.00000  3.916  7.822 19.752 16.986  0.0000  0.0000  0.0000
 1992 168    20    16      8  0.0792  0.0004  0.0494  0.0167  0.0056 0.00000  3.876  7.745 20.697 17.701  0.0000  0.0000  0.0000
 1992 169    21    17      9  0.0992  0.0003  0.0632  0.0210  0.0054 0.00000  3.849  7.697 19.513 15.498  0.0000  0.0000  0.0000
 1992 170    22    18      9  0.0698  0.0005  0.0429  0.0145  0.0061 0.00000  3.807  7.616 21.540 18.610  0.0000  0.0000  0.0000
 1992 171    23    19     10  0.1251  0.0005  0.0801  0.0253  0.0081 0.00000  3.773  7.570 21.443 17.921  0.0000  0.0000  0.0000
 1992 172    24    20     10  0.1045  0.0005  0.0661  0.0214  0.0079 0.00000  3.737  7.513 22.132 18.446  0.0000  0.0000  0.0000
 1992 173    25    21     11  0.0496  0.0005  0.0295  0.0110  0.0052 0.00000  3.702  7.438 18.897 17.547  0.0000  0.0000  0.0000
 1992 174    26    22     11  0.0709  0.0005  0.0438  0.0153  0.0063 0.00000  3.668  7.377 19.610 17.833  0.0000  0.0000  0.0000
 1992 175    27    23     11  0.0485  0.0005  0.0290  0.0111  0.0046 0.00000  3.642  7.318 17.375 15.993  0.0000  0.0000  0.0000
 1992 176    28    24     12  0.0811  0.0006  0.0515  0.0164  0.0070 0.00000  3.613  7.269 19.095 18.042  0.0000  0.0000  0.0000
 1992 177    29    25     13  0.1544  0.0008  0.0967  0.0292  0.0145 0.00000  3.568  7.236 24.783 22.215  0.0000  0.0000  0.0000
 1992 178    30    26     13  0.0732  0.0005  0.0419  0.0179  0.0060 0.00000  3.559  7.181 19.950 15.834  0.0000  0.0000  0.0000
 1992 179    31    27     13  0.0350  0.0001  0.0208  0.0092  0.0016 0.00000  3.568  7.183  8.981  7.004  0.0000  0.0000  0.0000
 1992 180    32    28     13  0.0195  0.0000  0.0113  0.0049  0.0012 0.00000  3.571  7.182  8.378  5.347  0.0000  0.0000  0.0000
 1992 181    33    29     13  0.0156  0.0001  0.0088  0.0037  0.0015 0.00000  3.572  7.177  9.292  7.480  0.0000  0.0000  0.0000
 1992 182    34    30     13  0.0082  0.0000  0.0044  0.0018  0.0011 0.00000  3.572  7.173  8.242  5.902  0.0000  0.0000  0.0000
 1992 183    35    31     13  0.0196  0.0001  0.0112  0.0047  0.0017 0.00000  3.572  7.166  9.882  8.200  0.0000  0.0000  0.0000
 1992 184    36    32     14  0.0679  0.0001  0.0407  0.0170  0.0024 0.00000  3.585  7.167 11.320  8.185  0.0000  0.0000  0.0000
 1992 185    37    33     14  0.0576  0.0001  0.0345  0.0145  0.0021 0.00000  3.595  7.167 11.001  6.775  0.0000  0.0000  0.0000
 1992 186    38    34     14  0.0403  0.0003  0.0233  0.0098  0.0030 0.00000  3.589  7.142 12.886 11.202  0.0000  0.0000  0.0000
 1992 187    39    35     14  0.0569  0.0001  0.0338  0.0144  0.0024 0.00000  3.597  7.143 10.400  8.583  0.0000  0.0000  0.0000
 1992 188    40    36     14  0.0000  0.0000  0.0000  0.0000  0.0009 0.00000  3.596  7.140  7.087  3.880  0.0000  0.0000  0.0000
 1992 189    41    37     14  0.0000  0.0000  0.0000  0.0000  0.0010 0.00000  3.593  7.134  8.016  3.782  0.0000  0.0000  0.0000
 1992 190    42    38     15  0.0919  0.0002  0.0554  0.0236  0.0034 0.00000  3.604  7.131 13.743  8.778  0.0000  0.0000  0.0000
 1992 191    43    39     16  0.1443  0.0003  0.0889  0.0358  0.0059 0.00000  3.612  7.140 16.335 11.500  0.0000  0.0000  0.0000
 1992 192    44    40     17  0.2410  0.0006  0.1497  0.0566  0.0123 0.00000  3.613  7.163 20.079 15.606  0.0000  0.0000  0.0000
 1992 193    45    41     19  0.2816  0.0007  0.1763  0.0643  0.0150 0.00000  3.610  7.197 21.046 16.206  0.0000  0.0000  0.0000
 1992 194    46    42     21  0.3350  0.0009  0.2107  0.0742  0.0196 0.00000  3.600  7.234 21.862 17.649  0.0000  0.0000  0.0000
 1992 195    47    43     23  0.3005  0.0012  0.1844  0.0678  0.0217 0.00000  3.584  7.224 23.218 19.235  0.0000  0.0000  0.0000
 1992 196    48    44     23  0.0679  0.0004  0.0396  0.0184  0.0045 0.00000  3.582  7.205 13.881  9.828  0.0000  0.0000  0.0000
 1992 197    49    45     23  0.0000  0.0000  0.0000  0.0000  0.0014 0.00000  3.582  7.205  5.793  3.765  0.0000  0.0000  0.0000
 1992 198    50    46     23  0.0000  0.0000  0.0000  0.0000  0.0012 0.00000  3.582  7.205  4.869  2.174  0.0000  0.0000  0.0000
 1992 199    51    47     23  0.0000  0.0000  0.0000  0.0000  0.0014 0.00000  3.581  7.203  6.697  3.101  0.0000  0.0000  0.0000
 1992 200    52    48     23  0.0000  0.0000  0.0000  0.0000  0.0015 0.00000  3.581  7.203  6.077  4.944  0.0000  0.0000  0.0000
 1992 201    53    49     23  0.0245  0.0001  0.0139  0.0059  0.0023 0.00000  3.581  7.197  9.396  6.562  0.0000  0.0000  0.0000
 1992 202    54    50     24  0.1365  0.0003  0.0825  0.0356  0.0047 0.00000  3.592  7.196 12.892  7.520  0.0000  0.0000  0.0000
 1992 203    55    51     24  0.0334  0.0001  0.0195  0.0086  0.0022 0.00000  3.595  7.196  8.138  5.666  0.0000  0.0000  0.0000
 1992 204    56    52     24  0.0000  0.0000  0.0000  0.0000  0.0014 0.00000  3.594  7.194  6.315  3.006  0.0000  0.0000  0.0000
 1992 205    57    53     24  0.0000  0.0000  0.0000  0.0000  0.0014 0.00000  3.593  7.192  6.363  3.118  0.0000  0.0000  0.0000
 1992 206    58    54     24  0.0077  0.0001  0.0037  0.0017  0.0018 0.00000  3.591  7.187  8.113  4.296  0.0000  0.0000  0.0000
 1992 207    59    55     25  0.1402  0.0003  0.0851  0.0376  0.0052 0.00000  3.600  7.190 12.736  8.782  0.0000  0.0000  0.0000
 1992 208    60    56     25  0.0675  0.0004  0.0392  0.0180  0.0048 0.00000  3.596  7.169 11.321 10.550  0.0000  0.0000  0.0000
 1992 209    61    57     26  0.1700  0.0003  0.1037  0.0453  0.0061 0.00000  3.606  7.178 12.298  9.545  0.0000  0.0000  0.0000
 1992 210    62    58     27  0.0306  0.0001  0.0174  0.0080  0.0027 0.00000  3.606  7.173  9.424  6.702  0.0000  0.0000  0.0000
 1992 211    63    59     28  0.2323  0.0007  0.1401  0.0623  0.0104 0.00000  3.610  7.168 15.211 12.622  0.0000  0.0000  0.0000
 1992 212    64    60     28  0.0840  0.0004  0.0490  0.0228  0.0055 0.00000  3.607  7.152 12.345 10.292  0.0000  0.0000  0.0000
 1992 213    65    61     29  0.0304  0.0001  0.0175  0.0078  0.0027 0.00000  3.608  7.152  8.252  6.365  0.0000  0.0000  0.0000
 1992 214    66    62     28  0.0000  0.0000  0.0000  0.0000  0.0019 0.00000  3.607  7.149  7.042  4.142  0.0000  0.0000  0.0000
 1992 215    67    63     29  0.0696  0.0002  0.0414  0.0192  0.0031 0.00000  3.610  7.149  9.576  5.559  0.0000  0.0000  0.0000
 1992 216    68    64     30  0.1220  0.0002  0.0744  0.0329  0.0043 0.00000  3.615  7.156 11.020  6.560  0.0000  0.0000  0.0000
 1992 217    69    65     30  0.0817  0.0002  0.0490  0.0223  0.0037 0.00000  3.618  7.156 10.214  6.391  0.0000  0.0000  0.0000
 1992 218    70    66     31  0.1918  0.0004  0.1196  0.0491  0.0066 0.00000  3.621  7.175 13.629  7.298  0.0000  0.0000  0.0000
 1992 219    71    67     35  0.6126  0.0012  0.3904  0.1385  0.0301 0.00000  3.616  7.275 21.842 15.505  0.0000  0.0000  0.0000
 1992 220    72    68     36  0.2067  0.0012  0.1241  0.0515  0.0146 0.00000  3.602  7.246 18.757 14.279  0.0000  0.0000  0.0000
 1992 221    73    69     37  0.0620  0.0001  0.0372  0.0162  0.0034 0.00000  3.604  7.247  8.604  5.548  0.0000  0.0000  0.0000
 1992 222    74    70     37  0.0983  0.0003  0.0594  0.0261  0.0045 0.00000  3.606  7.246 10.616  5.857  0.0000  0.0000  0.0000
 1992 223    75    71     39  0.2598  0.0007  0.1609  0.0655  0.0112 0.00000  3.606  7.252 13.894 11.308  0.0000  0.0000  0.0000
 1992 224    76    72     41  0.2833  0.0005  0.1770  0.0722  0.0093 0.00000  3.613  7.272 12.729  8.982  0.0000  0.0000  0.0000
 1992 225    77    73     43  0.3647  0.0007  0.2227  0.0977  0.0130 0.00000  3.624  7.281 13.973 10.631  0.0000  0.0000  0.0000
 1992 226    78    74     45  0.4134  0.0008  0.2572  0.1062  0.0141 0.00000  3.631  7.302 15.022  9.834  0.0000  0.0000  0.0000
 1992 227    79    75     48  0.4367  0.0008  0.2728  0.1104  0.0155 0.00000  3.636  7.323 15.394 10.132  0.0000  0.0000  0.0000
 1992 228    80    76     50  0.4019  0.0011  0.2486  0.1008  0.0182 0.00000  3.634  7.326 16.574 11.958  0.0000  0.0000  0.0000
 1992 229    81    77     55  0.8101  0.0019  0.5099  0.1918  0.0381 0.00000  3.631  7.363 19.584 14.963  0.0000  0.0000  0.0000
 1992 230    82    78     60  0.8162  0.0023  0.5131  0.1892  0.0438 0.00000  3.620  7.382 20.594 15.968  0.0000  0.0000  0.0000
 1992 231    83    79     66  0.8315  0.0022  0.5251  0.1952  0.0392 0.00000  3.614  7.399 18.570 14.591  0.0000  0.0000  0.0000
 1992 232    84    80     70  0.7602  0.0020  0.4814  0.1791  0.0337 0.00000  3.611  7.411 17.359 13.342  0.0000  0.0000  0.0000
 1992 233    85    81     75  0.7354  0.0018  0.4690  0.1710  0.0311 0.00000  3.608  7.425 16.882 12.345  0.0000  0.0000  0.0000
 1992 234    86    82     83  1.2636  0.0032  0.8076  0.2816  0.0638 0.00000  3.598  7.450 20.515 15.836  0.0000  0.0000  0.0000
 1992 235    87    83     87  0.7344  0.0040  0.4510  0.1726  0.0507 0.00000  3.579  7.409 18.926 16.791  0.0000  0.0000  0.0000
 1992 236    88    84     94  1.1653  0.0030  0.7325  0.2796  0.0521 0.00000  3.582  7.415 17.471 14.127  0.0000  0.0000  0.0000
 1992 237    89    85    102  1.3066  0.0030  0.8330  0.3019  0.0567 0.00000  3.583  7.434 18.389 13.593  0.0000  0.0000  0.0000
 1992 238    90    86    111  1.3450  0.0031  0.8624  0.3068  0.0571 0.00000  3.582  7.452 18.319 13.000  0.0000  0.0000  0.0000
 1992 239    91    87    119  1.3409  0.0032  0.8595  0.3065  0.0567 0.00000  3.582  7.463 17.673 12.798  0.0000  0.0000  0.0000
 1992 240    92    88    131  1.8820  0.0050  1.2064  0.4126  0.0978 0.00000  3.574  7.476 21.855 15.245  0.0000  0.0000  0.0000
 1992 241    93    89    138  1.1852  0.0052  0.7444  0.2733  0.0671 0.00000  3.563  7.450 17.432 14.869  0.0000  0.0000  0.0000
 1992 242    94    90    151  1.9476  0.0072  1.2384  0.4214  0.1203 0.00000  3.546  7.439 21.933 17.287  0.0000  0.0000  0.0000
 1992 243    95    91    156  0.9143  0.0084  0.5451  0.2135  0.0860 0.00000  3.523  7.372 19.855 17.877  0.0000  0.0000  0.0000
 1992 244    96    92    159  0.6087  0.0036  0.3741  0.1464  0.0382 0.00000  3.518  7.351 13.033 11.574  0.0000  0.0000  0.0000
 1992 245    97    93    163  0.5752  0.0027  0.3548  0.1388  0.0335 0.00000  3.516  7.339 12.763 10.399  0.0000  0.0000  0.0000
 1992 246    98    94    166  0.5466  0.0037  0.3336  0.1304  0.0384 0.00000  3.510  7.317 13.677 11.519  0.0000  0.0000  0.0000
 1992 247    99    95    174  1.4098  0.0042  0.8815  0.3443  0.0616 0.00000  3.518  7.316 15.578 12.059  0.0000  0.0000  0.0000
 1992 248   100    96    186  1.8688  0.0048  1.1704  0.4569  0.0781 0.00000  3.531  7.323 16.644 12.459  0.0000  0.0000  0.0000
 1992 249   101    97    199  2.2363  0.0059  1.3964  0.5447  0.1004 0.00000  3.543  7.328 18.498 13.228  0.0000  0.0000  0.0000
 1992 250   102    98    213  2.2124  0.0066  1.3819  0.5385  0.1000 0.00000  3.550  7.327 17.000 13.472  0.0000  0.0000  0.0000
 1992 251   103    99    229  2.6711  0.0086  1.6609  0.6466  0.1336 0.00000  3.556  7.321 18.665 14.854  0.0000  0.0000  0.0000
 1992 252   104   100    237  1.3493  0.0114  0.8125  0.3159  0.1156 0.00000  3.535  7.269 18.951 16.676  0.0000  0.0000  0.0000
 1992 253   105   101    251  2.3753  0.0115  1.4594  0.5667  0.1510 0.00000  3.527  7.244 18.838 16.526  0.0000  0.0000  0.0000
 1992 254   106   102    269  3.0204  0.0129  1.8546  0.7196  0.1896 0.00206  3.530  7.245 20.110 17.130  0.0000  0.0000  0.0000
 1992 255   107   103    284  2.5243  0.0149  1.5239  0.5927  0.1886 0.01025  3.543  7.295 20.100 17.889  0.0000  0.0000  0.0000
 1992 256   108   104    307  3.7440  0.0125  2.2988  0.8958  0.1935 0.02605  3.612  7.496 18.083 15.624  0.0000  0.0000  0.0000
 1992 257   109   105    319  2.0646  0.0089  1.2650  0.4917  0.1061 0.01836  3.651  7.612 15.332 12.555  0.0000  0.0000  0.0000
 1992 258   110   106    341  3.6093  0.0099  2.2185  0.8608  0.1570 0.03958  3.741  7.870 17.702 12.813  0.0000  0.0000  0.0000
 1992 259   111   107    371  4.8621  0.0146  2.9613  1.1533  0.2342 0.06577  3.867  8.233 19.187 14.857  0.0000  0.0000  0.0000
 1992 260   112   108    398  4.5452  0.0218  2.7020  1.0631  0.2920 0.07534  3.977  8.564 20.889 17.366  0.0000  0.0000  0.0000
 1992 261   113   109    436  6.5675  0.0318  3.8172  1.5155  0.5084 0.13462  4.153  9.089 24.740 20.685  0.0000  0.0000  0.0000
 1992 262   114   110    464  4.4690  0.0155  2.6390  1.0825  0.1894 0.10225  4.279  9.458 15.361 12.785  0.0000  0.0000  0.0000
 1992 263   115   111    495  5.1466  0.0152  3.0334  1.2477  0.2058 0.12697  4.424  9.874 16.917 11.937  0.0000  0.0000  0.0000
 1992 264   116   112    541  7.5593  0.0274  4.5955  1.6892  0.4044 0.21436  4.662 10.479 22.283 15.322  0.0000  0.0000  0.0000
 1992 265   117   113    606 10.1305  0.0467  6.6241  1.9677  0.7355 0.35454  4.994 11.304 26.680 19.680  0.0000  0.0000  0.0000
 1992 266   118   114    610  1.5442  0.0166  0.0000  0.8478  0.1183 0.00000  4.909 11.237 12.049 10.669  0.0000  0.0000  0.0000
 1992 267   119   115    637  4.8434  0.0241  2.4389  1.2896  0.2310 0.14524  4.987 11.509 16.587 12.306  0.0000  0.0000  0.0000
 1992 268   120   116    645  1.9194  0.0234  0.8703  0.5059  0.1494 0.05466  5.016 11.578 12.769 11.849  0.0000  0.0000  0.0000
 1992 269   121   117    659  2.6246  0.0096  1.4656  0.6371  0.1088 0.09433  5.093 11.767 11.180  8.347  0.0000  0.0000  0.0000
 1992 270   122   118    673  2.4593  0.0112  1.3718  0.5829  0.1041 0.09059  5.155 11.935 11.998  7.250  0.0000  0.0000  0.0000
 1992 271   123   119    710  6.2837  0.0282  3.5993  1.4237  0.2790 0.24974  5.320 12.371 17.462 11.969  0.0000  0.0000  0.0000
 1992 272   124   120    755  7.5934  0.0361  4.3237  1.7086  0.3586 0.31959  5.509 12.872 18.775 13.067  0.0000  0.0000  0.0000
 1992 273   125   121    809  9.0746  0.0472  5.2660  2.0365  0.4702 0.41434  5.733 13.448 20.422 14.358  0.0000  0.0000  0.0000
 1992 274   126   122    880 12.0756  0.0785  7.1020  2.5613  0.7942 0.60093  6.047 14.178 23.628 17.986  0.0000  0.0000  0.0000
 1992 275   127   123    932  8.9428  0.0940  4.9099  2.0067  0.7155 0.44469  6.185 14.580 23.918 18.452  0.0000  0.0000  0.0000
 1992 276   128   124    973  7.6064  0.0918  3.9233  1.8228  0.5810 0.36700  6.274 14.864 20.387 17.263  0.0000  0.0000  0.0000
 1992 277   129   125   1026  9.2580  0.0830  5.4601  1.9317  0.5654 0.54603  6.518 15.388 19.081 15.707  0.0000  0.0000  0.0000
 1992 278   130   126   1105 12.3557  0.1188  7.8314  2.2523  0.9016 0.83269  6.830 16.103 23.302 18.399  0.0000  0.0000  0.0000
 1992 279   131   127   1125  4.3832  0.0931  1.6955  1.2650  0.4040 0.14460  6.781 16.084 17.184 14.910  0.0000  0.0000  0.0000
 1992 280   132   128   1170  7.3135  0.0542  4.1622  1.6241  0.3420 0.46416  6.924 16.453 14.556 11.534  0.0000  0.0000  0.0000
 1992 281   133   129   1201  5.6073  0.0421  2.5919  1.5016  0.2633 0.28930  6.964 16.635 13.805  9.750  0.0000  0.0000  0.0000
 1992 282   134   130   1247  8.1966  0.0619  4.7952  1.7244  0.3862 0.56820  7.186 17.085 16.553 11.003  0.0000  0.0000  0.0000
 1992 283   135   131   1317 10.8527  0.0000  6.4777  1.8243  0.5857 1.02853  7.584 18.057 18.749 13.625  0.0000  0.0000  0.0000
 1992 284   136   132   1416 14.6403  0.0000  7.4657  1.8968  0.9350 3.07140  8.893 21.551 22.497 16.090  0.0000  0.0000  0.0000
 1992 285   137   133   1502 13.4483  0.0000  7.3918  1.9005  1.0937 1.95912  9.597 23.262 24.408 17.998  0.0000  0.0000  0.0000
 1992 286   138   134   1602 15.2917  0.0000  7.6501  1.9545  1.1495 3.20119 10.746 26.148 22.207 18.075  0.0000  0.0000  0.0000
 1992 287   139   135   1709 16.0402  0.0000  7.8496  1.9822  1.1462 3.63966 11.941 29.090 22.982 16.925  0.0000  0.0000  0.0000
 1992 288   140   136   1823 18.5202  0.0000 10.4037  2.7788  1.7118 2.08046 12.373 29.876 26.723 20.273  0.0000  0.0000  0.0000
 1992 289   141   137   1859  8.4090  0.5500  4.1656  1.7562  1.5537 0.47248 12.230 29.512 29.054 23.351  0.0000  0.0000  0.0000
 1992 290   142   138   1900  8.0687  0.3908  4.8748  1.4315  0.9512 0.55377 12.234 29.357 19.769 18.057  0.0000  0.0000  0.0000
 1992 291   143   139   1981 14.1434  0.3416  8.0570  2.6984  1.0589 1.14469 12.301 29.334 19.804 16.522  0.0000  0.0000  0.0000
 1992 292   144   140   2057 13.1549  0.2708  7.4107  2.5507  0.8673 1.13031 12.379 29.368 19.128 14.241  0.0000  0.0000  0.0000
 1992 293   145   141   2085  6.8513  0.3286  2.7820  1.9489  0.7645 0.08417 12.223 29.107 18.504 15.435  0.0000  0.0000  0.0000
 1992 294   146   142   2155 11.8699  0.2876  6.9396  2.2303  0.8290 1.01145 12.304 29.154 17.353 14.391  0.0000  0.0000  0.0000
 1992 295   147   143   2229 12.6655  0.2810  7.4317  2.2255  0.8352 1.23694 12.449 29.282 18.935 13.295  0.0000  0.0000  0.0000
 1992 296   148   144   2319 15.8932  0.4169  9.4972  2.6751  1.2329 1.65432 12.609 29.427 21.979 15.945  0.0000  0.0000  0.0000
 1992 297   149   145   2434 19.7858  0.0000 10.1046  2.6055  1.8926 3.41622 13.359 31.042 25.026 19.562  6.1869 19.1288 33.7032
 1992 298   150   146   2526 19.6510  0.8354 11.3224  3.2481  2.4868 2.00824 13.455 31.010 28.485 22.663  6.2380 19.9983 32.5145
 1992 299   151   147   2558 10.5260  0.8850  6.0254  1.9923  1.8077 0.44643 13.399 30.701 25.101 21.957  6.2290 20.1762 32.3928
 1992 300   152   148   2653 20.4011  0.3813 11.1072  3.2964  2.4484 1.96711 13.678 31.122 25.914 22.305  6.2345 20.2585 32.2760
 1992 301   153   149   2760 20.5944  0.0000 10.1199  3.1557  2.6638 2.62058 14.247 32.261 27.917 22.842  6.2500 20.3318 32.1060
 1992 302   154   150   2769  4.4864  0.4407  2.4125  1.2369  0.5253 0.00000 14.157 32.054 13.999 10.817  6.4179 18.1466 33.2414
 1992 303   155   151   2836 12.9124  0.5957  7.4493  2.5943  0.9709 1.01674 14.209 32.010 19.277 12.841  6.4898 16.9094 34.0292
 1992 304   156   152   2900 13.6132  0.6732  7.9974  2.6306  1.0952 1.12798 14.259 31.963 19.563 14.056  6.5103 16.2953 34.5154
 1992 305   157   153   2963 15.4486  0.7768  8.9124  3.0202  1.3351 1.24871 14.300 31.900 21.338 15.258  6.4982 16.0829 34.8036
 1992 306   158   154   3067 19.1355  0.0000  9.5253  3.1463  1.9128 2.49697 14.808 32.930 24.487 18.012  6.4351 16.5470 34.7336
 1992 307   159   155   3150 20.0206  1.2689 10.9100  3.9936  2.6359 1.35288 14.752 32.660 27.724 21.571  6.3887 17.2852 34.2856
 1992 308   160   156   3199 11.6265  0.8859  6.7599  2.6348  1.1193 0.37098 14.692 32.394 18.307 14.586  6.4115 16.7992 34.6287
 1992 309   161   157   3206  6.9862  0.6348  4.4136  1.5230  0.5926 0.29829 14.656 32.213 13.012 10.293  6.4921 15.9251 34.9991
 1992 310   162   158   3237  7.0136  0.6624  4.3611  1.4753  0.5920 0.38981 14.627 32.041 14.445  9.542  6.5812 14.9973 35.3705
 1992 311   163   159   3290 10.4656  0.7942  6.5196  2.0287  0.8780 0.78807 14.608 31.891 17.151 11.997  6.6199 14.4965 35.6294
 1992 312   164   160   3331 13.3762  0.7877  7.9537  2.5973  1.2272 0.96009 14.626 31.818 19.485 14.402  6.6119 14.4427 35.7327
 1992 313   165   161   3424 16.9188  0.0000  7.8599  2.6402  1.7303 2.90253 15.230 33.155 22.809 16.759  6.5689 14.7866 35.6575
 1992 314   166   162   3486 19.5191  1.2029 11.0065  3.5566  2.4983 1.54235 15.216 33.018 27.006 19.917  6.5180 15.3925 35.3701
 1992 315   167   163   3466  7.8990  1.1940  5.0349  1.6525  1.6432 0.07303 15.100 32.623 21.156 19.007  6.4693 15.9067 35.1602
 1992 316   168   164   3526 17.6139  1.6373 10.0243  3.7678  2.7642 0.56068 14.913 32.096 26.674 22.269  6.4361 16.5491 34.7251
 1992 317   169   165   3592 18.9931  1.6435 10.8082  3.8842  2.9383 0.86813 14.744 31.626 27.512 22.427  6.4121 17.0404 34.3840
 1992 318   170   166   3665 18.9821  1.5425 10.9183  4.0004  2.5535 0.81335 14.589 31.193 25.806 20.433  6.3851 17.3505 34.2424
 1992 319   171   167   3670 15.3878  1.6802  8.4209  3.3331  2.9570 0.30465 14.374 30.607 29.032 22.943  6.3742 17.6825 33.9791
 1992 320   172   168   3654 16.7696  1.6069  9.0152  3.9192  2.5898 0.29849 14.167 30.040 24.361 21.423  6.3538 17.9710 33.8179
 1992 321   173   169   3703 13.4424  1.2433  7.7012  3.4867  1.4791 0.04840 13.996 29.554 19.166 15.978  6.3557 17.7598 34.0173
 1992 322   174   170   3709 12.7001  1.1636  7.2177  3.0719  1.3402 0.46806 13.869 29.198 19.592 14.648  6.3698 17.4708 34.2177
 1992 323   175   171   3767 14.4251  1.2201  7.8952  3.4921  1.5811 0.58557 13.735 28.842 21.596 15.612  6.3732 17.3097 34.3580
 1992 324   176   172   3755 18.2759  1.4754 10.0086  3.9358  2.4839 1.05711 13.580 28.491 25.773 19.718  6.3545 17.5025 34.2817
 1992 325   177   173   3717 15.7905  1.5794  8.2324  3.7630  2.8036 0.31044 13.359 27.911 27.774 21.970  6.3408 17.7967 34.0735
 1992 326   178   174   3728  6.5877  1.3043  4.2150  1.7773  1.4572 0.00000 13.155 27.351 20.158 17.435  6.3317 17.7742 34.1527
 1992 327   179   175   3760 10.8347  1.1383  5.9503  3.1306  1.2448 0.00000 12.976 26.855 18.028 14.695  6.3469 17.4982 34.3336
 1992 328   180   176   3772  9.7045  1.0731  5.6015  2.6395  1.1392 0.14041 12.817 26.424 18.661 13.572  6.3680 17.1970 34.5028
 1992 329   181   177   3810 15.1607  1.3243  8.3271  3.6470  2.0969 0.47362 12.625 25.967 23.969 18.629  6.3540 17.3130 34.4743
 1992 330   182   178   3821 14.2155  1.3734  7.5678  3.6987  2.1832 0.01123 12.392 25.346 22.744 19.697  6.3389 17.4849 34.3967
 1992 331   183   179   3831 13.5584  1.3686  7.2047  3.4871  2.2911 0.00000 12.150 24.710 24.411 20.218  6.3259 17.6569 34.3064
 1992 332   184   180   3875 16.9686  1.3322  9.0649  4.0761  2.4849 0.44865 11.955 24.237 25.261 20.136  6.3147 17.8007 34.2326
 1992 333   185   181   3909 14.0094  1.3482  7.4522  3.5811  2.4654 0.02400 11.708 23.599 25.778 20.688  6.3051 17.9478 34.1451
 1992 334   186   182   3931 13.3493  1.4306  6.7778  3.2675  3.0036 0.00000 11.434 22.899 28.057 23.433  6.3062 18.1259 33.9605
 1992 335   187   183   3940 13.9125  1.4041  6.9842  3.4418  3.0013 0.00000 11.158 22.198 26.745 23.412  6.3070 18.2872 33.7941
 1992 336   188   184   3958 14.7120  1.1790  7.5608  3.8098  2.1426 0.20105 10.947 21.683 22.566 19.017  6.2994 18.3249 33.8036
 1992 337   189   185   3988 13.7167  1.0732  7.1673  3.5352  1.8325 0.32394 10.770 21.269 22.660 16.961  6.2988 18.2599 33.8727
 1992 338   190   186   4003 14.5610  1.1282  7.3641  3.6755  2.2154 0.37463 10.583 20.846 25.021 18.677  6.2932 18.2804 33.8869
 1992 339   191   187   4051 15.3934  1.2072  7.5571  3.8882  2.7735 0.25910 10.359 20.322 27.006 21.414  6.2877 18.3905 33.8112
 1992 340   192   188   4045 11.7922  1.1824  6.0977  3.0376  2.5169 0.00000 10.102 19.685 26.269 21.108  6.2823 18.4828 33.7530
 1992 341   193   189   4050 13.6489  1.2399  6.5042  3.4381  3.2783 0.00000  9.821 18.997 28.167 24.332  6.2890 18.5999 33.5936
 1992 342   194   190   4063 12.8369  1.0883  6.4516  3.3745  2.4984 0.00000  9.567 18.378 24.928 20.986  6.2834 18.6770 33.5519
 1992 343   195   191   4070 13.1435  1.0638  6.3883  3.3776  2.6458 0.00000  9.309 17.757 26.149 21.454  6.2790 18.7559 33.5002
 1992 344   196   192   4080 11.6262  1.0290  5.7400  3.0710  2.5762 0.00000  9.052 17.141 25.338 21.682  6.2754 18.8341 33.4448
 1992 345   197   193   4099 11.8607  1.0186  5.6158  3.1421  2.7815 0.00000  8.787 16.515 26.072 22.775  6.2751 18.9183 33.3622
 1992 346   198   194   4115 11.7060  0.9351  5.6549  3.1997  2.4415 0.00000  8.536 15.928 25.060 21.190  6.2712 18.9733 33.3319
 1992 347   199   195   4161 12.8260  0.0000  4.4221  1.7709  2.3765 2.95001  9.309 18.038 25.448 20.467  6.1993 19.1445 33.6101
 1992 348   200   196   4039 12.4771  0.0000  4.5366  1.8871  2.8197 2.00833  9.800 18.980 28.162 22.680  6.1416 19.3192 33.7960
 1992 349   201   197   3937  9.8623  0.2266  4.4494  1.8168  2.4298 0.24582  9.806 18.637 26.709 22.159  6.0705 19.5104 34.0488
 1992 350   202   198   3850  7.8511  0.6122  3.9286  1.6918  1.8253 0.07481  9.565 17.923 25.605 19.155  6.0133 19.6189 34.2979
 1992 351   203   199   3769  5.7154  0.8104  2.7224  1.3159  1.9702 0.00000  9.170 17.003 27.499 21.300  6.0022 19.6599 34.3261
 1992 352   204   200   3697  3.9120  0.7583  1.8182  0.7707  1.9444 0.00000  8.768 16.130 26.283 22.736  6.0060 19.6709 34.2916
 1992 353   205   201   3638  3.7912  0.6713  1.6703  0.7278  1.9227 0.00000  8.386 15.335 28.286 22.589  6.0092 19.6805 34.2617
 1992 354   206   202   3586  2.2553  0.6119  0.8321  0.2387  1.8241 0.00000  8.009 14.596 28.646 22.842  6.0109 19.6854 34.2463
 1992 355   207   203   3540  2.3590  0.5935  0.5657  0.1623  2.2515 0.00000  7.619 13.874 31.713 26.088  6.0133 19.6889 34.2281
 1992 356   208   204   3501  1.6746  0.5265  0.2360  0.0677  1.9064 0.00000  7.250 13.219 30.180 24.197  6.0139 19.6904 34.2225
 1992 357   209   205   3468  0.7923  0.4969  0.0000  0.0000  1.7557 0.00000  6.885 12.594 27.964 24.095  6.0139 19.6904 34.2225
 1992 358   210   206   3439  0.6365  0.4680  0.0000  0.0000  1.7312 0.00000  6.533 12.002 26.782 24.310  6.0139 19.6904 34.2225
 1992 359   211   207   3416  0.8948  0.4256  0.0000  0.0000  1.6407 0.00000  6.206 11.457 27.410 23.397  6.0139 19.6904 34.2225
