*PLANT C OUTPUT FILE

*DSSAT Cropping System Model Ver. 4.6.1.000 -release      APR 20, 2017; 11:17:54
                                                                                
*RUN   1        : UYSB                      CRGRO046 UYSB1239    1              
 MODEL          : CRGRO046 - Soybean                                            
 EXPERIMENT     : UYSB1239 SN late to create DSS                                
 DATA PATH      :                                                               
 TREATMENT  1   : UYSB                      CRGRO046                            
  
@YEAR DOY   DAS   DAP   TWAD    PHAD    CMAD    CGRD    GRAD    MRAD    CHAD   CL%D   CS%D   TGNN   TGAV    GN%D    GL%D    GC%D
 1990 110     4     0      0  0.0000  0.0000  0.0000  0.0000  0.0000 0.00000  0.000  0.000 22.031 18.450  0.0000  0.0000  0.0000
 1990 111     5     1      0  0.0000  0.0000  0.0000  0.0000  0.0000 0.00000  0.000  0.000 25.795 22.526  0.0000  0.0000  0.0000
 1990 112     6     2      0  0.0000  0.0000  0.0000  0.0000  0.0000 0.00000  0.000  0.000 20.232 19.029  0.0000  0.0000  0.0000
 1990 113     7     3      0  0.0000  0.0000  0.0000  0.0000  0.0000 0.00000  0.000  0.000 20.610 19.374  0.0000  0.0000  0.0000
 1990 114     8     4      0  0.0000  0.0000  0.0000  0.0000  0.0000 0.00000  0.000  0.000 20.254 19.636  0.0000  0.0000  0.0000
 1990 115     9     5      0  0.0000  0.0000  0.0000  0.0000  0.0000 0.00000  0.000  0.000 22.412 20.836  0.0000  0.0000  0.0000
 1990 116    10     6      0  0.0000  0.0000  0.0000  0.0000  0.0000 0.00000  0.000  0.000 19.383 17.055  0.0000  0.0000  0.0000
 1990 117    11     7      0  0.0000  0.0000  0.0000  0.0000  0.0000 0.00000  0.000  0.000 18.736 15.282  0.0000  0.0000  0.0000
 1990 118    12     8      8  0.0000  0.0003  0.0002  0.0001  0.0000 0.00000  3.967  7.931 18.657 14.558  0.0000  0.0000  0.0000
 1990 119    13     9      8  0.1089  0.0003  0.0689  0.0236  0.0059 0.00000  3.933  7.863 20.311 15.977  0.0000  0.0000  0.0000
 1990 120    14    10      9  0.0876  0.0002  0.0554  0.0196  0.0039 0.00000  3.912  7.820 16.978 13.125  0.0000  0.0000  0.0000
 1990 121    15    11      9  0.0947  0.0003  0.0605  0.0207  0.0044 0.00000  3.891  7.780 17.673 13.314  0.0000  0.0000  0.0000
 1990 122    16    12     10  0.0999  0.0003  0.0640  0.0218  0.0045 0.00000  3.872  7.746 17.384 13.063  0.0000  0.0000  0.0000
 1990 123    17    13     11  0.1132  0.0003  0.0727  0.0243  0.0056 0.00000  3.850  7.708 18.475 14.158  0.0000  0.0000  0.0000
 1990 124    18    14     11  0.0902  0.0004  0.0575  0.0195  0.0050 0.00000  3.828  7.668 18.146 13.969  0.0000  0.0000  0.0000
 1990 125    19    15     12  0.1340  0.0004  0.0866  0.0279  0.0073 0.00000  3.803  7.633 20.336 15.146  0.0000  0.0000  0.0000
 1990 126    20    16     12  0.0870  0.0006  0.0542  0.0183  0.0075 0.00000  3.765  7.562 21.510 17.816  0.0000  0.0000  0.0000
 1990 127    21    17     13  0.1267  0.0006  0.0813  0.0266  0.0080 0.00000  3.737  7.522 19.644 16.360  0.0000  0.0000  0.0000
 1990 128    22    18     14  0.1231  0.0003  0.0802  0.0264  0.0056 0.00000  3.725  7.512 16.791 12.597  0.0000  0.0000  0.0000
 1990 129    23    19     15  0.1528  0.0007  0.0984  0.0318  0.0102 0.00000  3.696  7.476 21.619 16.989  0.0000  0.0000  0.0000
 1990 130    24    20     16  0.1253  0.0006  0.0804  0.0265  0.0083 0.00000  3.671  7.439 19.461 15.917  0.0000  0.0000  0.0000
 1990 131    25    21     16  0.1421  0.0004  0.0930  0.0299  0.0067 0.00000  3.659  7.432 16.948 12.900  0.0000  0.0000  0.0000
 1990 132    26    22     17  0.0881  0.0004  0.0563  0.0191  0.0049 0.00000  3.649  7.413 14.760 12.064  0.0000  0.0000  0.0000
 1990 133    27    23     18  0.1066  0.0005  0.0683  0.0229  0.0061 0.00000  3.636  7.389 15.757 13.233  0.0000  0.0000  0.0000
 1990 134    28    24     19  0.1806  0.0007  0.1174  0.0361  0.0105 0.00000  3.615  7.372 18.546 15.688  0.0000  0.0000  0.0000
 1990 135    29    25     19  0.1104  0.0003  0.0656  0.0287  0.0049 0.00000  3.627  7.356 13.461 10.639  0.0000  0.0000  0.0000
 1990 136    30    26     20  0.0900  0.0003  0.0532  0.0233  0.0044 0.00000  3.633  7.339 13.984  9.755  0.0000  0.0000  0.0000
 1990 137    31    27     20  0.0908  0.0004  0.0534  0.0235  0.0050 0.00000  3.634  7.315 13.467 11.321  0.0000  0.0000  0.0000
 1990 138    32    28     21  0.0579  0.0002  0.0338  0.0152  0.0035 0.00000  3.635  7.301 12.146  9.331  0.0000  0.0000  0.0000
 1990 139    33    29     21  0.0936  0.0003  0.0558  0.0246  0.0043 0.00000  3.640  7.288 13.398  9.080  0.0000  0.0000  0.0000
 1990 140    34    30     22  0.1421  0.0004  0.0868  0.0359  0.0061 0.00000  3.647  7.278 14.812 10.530  0.0000  0.0000  0.0000
 1990 141    35    31     22  0.0917  0.0002  0.0551  0.0240  0.0039 0.00000  3.653  7.272 11.263  8.823  0.0000  0.0000  0.0000
 1990 142    36    32     23  0.0946  0.0002  0.0572  0.0247  0.0039 0.00000  3.657  7.266 12.045  8.004  0.0000  0.0000  0.0000
 1990 143    37    33     23  0.1022  0.0003  0.0621  0.0262  0.0046 0.00000  3.659  7.257 13.373  8.601  0.0000  0.0000  0.0000
 1990 144    38    34     25  0.2175  0.0006  0.1364  0.0510  0.0104 0.00000  3.656  7.259 18.056 12.488  0.0000  0.0000  0.0000
 1990 145    39    35     26  0.1799  0.0007  0.1112  0.0438  0.0096 0.00000  3.650  7.247 17.213 12.849  0.0000  0.0000  0.0000
 1990 146    40    36     27  0.2422  0.0013  0.1485  0.0555  0.0184 0.00000  3.627  7.217 22.178 17.618  0.0000  0.0000  0.0000
 1990 147    41    37     28  0.1032  0.0008  0.0599  0.0265  0.0089 0.00000  3.613  7.177 17.900 13.542  0.0000  0.0000  0.0000
 1990 148    42    38     29  0.1323  0.0003  0.0828  0.0324  0.0053 0.00000  3.616  7.186 12.108  8.551  0.0000  0.0000  0.0000
 1990 149    43    39     29  0.0787  0.0007  0.0451  0.0204  0.0070 0.00000  3.605  7.151 13.926 12.266  0.0000  0.0000  0.0000
 1990 150    44    40     30  0.1429  0.0013  0.0811  0.0374  0.0137 0.00000  3.585  7.088 18.139 16.812  0.0000  0.0000  0.0000
 1990 151    45    41     31  0.2151  0.0008  0.1274  0.0579  0.0110 0.00000  3.589  7.068 14.530 13.037  0.0000  0.0000  0.0000
 1990 152    46    42     33  0.2850  0.0007  0.1762  0.0704  0.0118 0.00000  3.597  7.091 15.559 11.813  0.0000  0.0000  0.0000
 1990 153    47    43     33  0.1140  0.0005  0.0668  0.0298  0.0070 0.00000  3.595  7.076 13.885 10.339  0.0000  0.0000  0.0000
 1990 154    48    44     35  0.2675  0.0016  0.1607  0.0617  0.0217 0.00000  3.573  7.052 20.374 17.891  0.0000  0.0000  0.0000
 1990 155    49    45     36  0.1816  0.0015  0.1047  0.0444  0.0172 0.00000  3.551  7.001 18.693 17.005  0.0000  0.0000  0.0000
 1990 156    50    46     37  0.1836  0.0005  0.1130  0.0447  0.0085 0.00000  3.554  7.014 13.560 10.153  0.0000  0.0000  0.0000
 1990 157    51    47     38  0.2791  0.0005  0.1767  0.0655  0.0100 0.00000  3.559  7.059 13.721  9.654  0.0000  0.0000  0.0000
 1990 158    52    48     40  0.2776  0.0005  0.1760  0.0650  0.0100 0.00000  3.564  7.098 13.686  9.423  0.0000  0.0000  0.0000
 1990 159    53    49     43  0.3796  0.0008  0.2425  0.0867  0.0144 0.00000  3.566  7.150 15.023 11.125  0.0000  0.0000  0.0000
 1990 160    54    50     44  0.2575  0.0005  0.1635  0.0603  0.0093 0.00000  3.571  7.178 12.076  9.170  0.0000  0.0000  0.0000
 1990 161    55    51     45  0.0922  0.0002  0.0573  0.0218  0.0046 0.00000  3.572  7.186  8.873  5.970  0.0000  0.0000  0.0000
 1990 162    56    52     45  0.0831  0.0002  0.0499  0.0211  0.0045 0.00000  3.574  7.185  9.385  4.998  0.0000  0.0000  0.0000
 1990 163    57    53     45  0.0306  0.0001  0.0166  0.0074  0.0041 0.00000  3.573  7.182  8.452  6.276  0.0000  0.0000  0.0000
 1990 164    58    54     46  0.0998  0.0007  0.0572  0.0260  0.0083 0.00000  3.568  7.162 11.800 10.449  0.0000  0.0000  0.0000
 1990 165    59    55     47  0.1839  0.0008  0.1081  0.0499  0.0108 0.00000  3.567  7.144 13.082 11.105  0.0000  0.0000  0.0000
 1990 166    60    56     47  0.0963  0.0002  0.0575  0.0259  0.0048 0.00000  3.571  7.146  8.809  5.976  0.0000  0.0000  0.0000
 1990 167    61    57     49  0.2838  0.0006  0.1751  0.0740  0.0102 0.00000  3.578  7.160 13.304  7.772  0.0000  0.0000  0.0000
 1990 168    62    58     52  0.5252  0.0011  0.3300  0.1282  0.0215 0.00000  3.582  7.200 16.966 11.830  0.0000  0.0000  0.0000
 1990 169    63    59     56  0.6331  0.0014  0.4009  0.1496  0.0274 0.00000  3.583  7.246 18.402 12.576  0.0000  0.0000  0.0000
 1990 170    64    60     57  0.1178  0.0007  0.0676  0.0315  0.0096 0.00000  3.580  7.229 11.856  9.849  0.0000  0.0000  0.0000
 1990 171    65    61     57  0.0530  0.0001  0.0304  0.0134  0.0049 0.00000  3.581  7.229  7.936  5.599  0.0000  0.0000  0.0000
 1990 172    66    62     58  0.1043  0.0003  0.0614  0.0286  0.0058 0.00000  3.582  7.225  9.561  4.723  0.0000  0.0000  0.0000
 1990 173    67    63     59  0.1637  0.0004  0.0994  0.0433  0.0072 0.00000  3.585  7.226 10.290  6.242  0.0000  0.0000  0.0000
 1990 174    68    64     60  0.1694  0.0006  0.1021  0.0446  0.0085 0.00000  3.586  7.223 11.558  7.313  0.0000  0.0000  0.0000
 1990 175    69    65     61  0.3070  0.0009  0.1877  0.0795  0.0138 0.00000  3.588  7.225 12.704 10.170  0.0000  0.0000  0.0000
 1990 176    70    66     63  0.3242  0.0007  0.2033  0.0809  0.0117 0.00000  3.591  7.240 12.395  7.754  0.0000  0.0000  0.0000
 1990 177    71    67     67  0.4836  0.0011  0.3072  0.1162  0.0177 0.00000  3.593  7.267 14.646  9.181  0.0000  0.0000  0.0000
 1990 178    72    68     69  0.4089  0.0011  0.2573  0.0987  0.0176 0.00000  3.591  7.279 14.654  9.945  0.0000  0.0000  0.0000
 1990 179    73    69     73  0.5637  0.0014  0.3583  0.1326  0.0237 0.00000  3.589  7.301 15.834 11.091  0.0000  0.0000  0.0000
 1990 180    74    70     75  0.4423  0.0011  0.2795  0.1063  0.0180 0.00000  3.589  7.314 13.629  9.774  0.0000  0.0000  0.0000
 1990 181    75    71     78  0.4914  0.0021  0.3015  0.1220  0.0269 0.00000  3.582  7.300 15.397 12.991  0.0000  0.0000  0.0000
 1990 182    76    72     83  0.7805  0.0021  0.4965  0.1810  0.0349 0.00000  3.578  7.322 16.655 12.831  0.0000  0.0000  0.0000
 1990 183    77    73     85  0.3274  0.0019  0.1975  0.0817  0.0217 0.00000  3.571  7.302 14.896 11.730  0.0000  0.0000  0.0000
 1990 184    78    74     86  0.2261  0.0019  0.1296  0.0605  0.0191 0.00000  3.562  7.271 13.080 11.695  0.0000  0.0000  0.0000
 1990 185    79    75     88  0.3396  0.0023  0.1967  0.0919  0.0247 0.00000  3.555  7.236 14.991 12.713  0.0000  0.0000  0.0000
 1990 186    80    76     90  0.3517  0.0034  0.1998  0.0933  0.0329 0.00000  3.539  7.182 16.526 15.205  0.0000  0.0000  0.0000
 1990 187    81    77     93  0.5833  0.0038  0.3503  0.1419  0.0446 0.00000  3.522  7.152 18.282 16.134  0.0000  0.0000  0.0000
 1990 188    82    78     95  0.3267  0.0027  0.1873  0.0876  0.0273 0.00000  3.512  7.114 14.820 13.332  0.0000  0.0000  0.0000
 1990 189    83    79     98  0.5275  0.0040  0.3132  0.1285  0.0447 0.00000  3.493  7.080 18.273 16.255  0.0000  0.0000  0.0000
 1990 190    84    80    101  0.5553  0.0031  0.3338  0.1401  0.0363 0.00000  3.485  7.065 15.841 13.921  0.0000  0.0000  0.0000
 1990 191    85    81    103  0.4231  0.0013  0.2615  0.1048  0.0206 0.00000  3.487  7.077 12.252  9.736  0.0000  0.0000  0.0000
 1990 192    86    82    110  0.9804  0.0021  0.6285  0.2270  0.0375 0.00000  3.489  7.139 15.387 11.079  0.0000  0.0000  0.0000
 1990 193    87    83    115  0.8942  0.0019  0.5738  0.2074  0.0332 0.00000  3.492  7.185 14.641 10.099  0.0000  0.0000  0.0000
 1990 194    88    84    123  1.1902  0.0029  0.7445  0.2916  0.0502 0.00000  3.500  7.216 16.746 12.202  0.0000  0.0000  0.0000
 1990 195    89    85    129  1.0000  0.0035  0.6211  0.2431  0.0501 0.00000  3.499  7.223 16.747 12.963  0.0000  0.0000  0.0000
 1990 196    90    86    134  0.9378  0.0046  0.5760  0.2252  0.0586 0.00000  3.490  7.210 17.874 14.586  0.0000  0.0000  0.0000
 1990 197    91    87    138  0.5992  0.0036  0.3672  0.1435  0.0394 0.00000  3.481  7.194 14.500 12.639  0.0000  0.0000  0.0000
 1990 198    92    88    143  0.8671  0.0035  0.5382  0.2101  0.0450 0.00000  3.479  7.194 14.589 12.394  0.0000  0.0000  0.0000
 1990 199    93    89    144  0.2522  0.0007  0.1553  0.0606  0.0146 0.00000  3.480  7.197  9.153  5.957  0.0000  0.0000  0.0000
 1990 200    94    90    144  0.0000  0.0002  0.0000  0.0000  0.0087 0.00000  3.479  7.195  6.581  2.950  0.0000  0.0000  0.0000
 1990 201    95    91    144  0.0000  0.0001  0.0000  0.0000  0.0084 0.00000  3.478  7.194  6.126  3.026  0.0000  0.0000  0.0000
 1990 202    96    92    144  0.0000  0.0002  0.0000  0.0000  0.0088 0.00000  3.477  7.192  6.568  3.364  0.0000  0.0000  0.0000
 1990 203    97    93     79  0.0000  0.0002  0.0000  0.0000  0.0085 0.00000  0.000  7.190  5.759  0.951  0.0000  0.0000  0.0000

*DSSAT Cropping System Model Ver. 4.6.1.000 -release      APR 20, 2017; 11:17:54
                                                                                
*RUN   2        : UYSB                      CRGRO046 UYSB1239    1              
 MODEL          : CRGRO046 - Soybean                                            
 EXPERIMENT     : UYSB1239 SN late to create DSS                                
 DATA PATH      :                                                               
 TREATMENT  1   : UYSB                      CRGRO046                            
  
@YEAR DOY   DAS   DAP   TWAD    PHAD    CMAD    CGRD    GRAD    MRAD    CHAD   CL%D   CS%D   TGNN   TGAV    GN%D    GL%D    GC%D
 1991 110     4     0      0  0.0000  0.0000  0.0000  0.0000  0.0000 0.00000  0.000  0.000 17.979 12.848  0.0000  0.0000  0.0000
 1991 111     5     1      0  0.0000  0.0000  0.0000  0.0000  0.0000 0.00000  0.000  0.000 20.206 15.149  0.0000  0.0000  0.0000
 1991 112     6     2      0  0.0000  0.0000  0.0000  0.0000  0.0000 0.00000  0.000  0.000 20.220 16.474  0.0000  0.0000  0.0000
 1991 113     7     3      0  0.0000  0.0000  0.0000  0.0000  0.0000 0.00000  0.000  0.000 19.808 17.851  0.0000  0.0000  0.0000
 1991 114     8     4      0  0.0000  0.0000  0.0000  0.0000  0.0000 0.00000  0.000  0.000 18.658 16.977  0.0000  0.0000  0.0000
 1991 115     9     5      0  0.0000  0.0000  0.0000  0.0000  0.0000 0.00000  0.000  0.000 19.303 17.179  0.0000  0.0000  0.0000
 1991 116    10     6      0  0.0000  0.0000  0.0000  0.0000  0.0000 0.00000  0.000  0.000 20.664 19.363  0.0000  0.0000  0.0000
 1991 117    11     7      0  0.0000  0.0000  0.0000  0.0000  0.0000 0.00000  0.000  0.000 20.114 18.028  0.0000  0.0000  0.0000
 1991 118    12     8      0  0.0000  0.0000  0.0000  0.0000  0.0000 0.00000  0.000  0.000 21.682 17.275  0.0000  0.0000  0.0000
 1991 119    13     9      8  0.0000  0.0004  0.0003  0.0001  0.0000 0.00000  3.950  7.895 22.629 18.499  0.0000  0.0000  0.0000
 1991 120    14    10      8  0.1338  0.0005  0.0843  0.0278  0.0095 0.00000  3.901  7.805 24.001 19.841  0.0000  0.0000  0.0000
 1991 121    15    11      9  0.1222  0.0006  0.0764  0.0248  0.0102 0.00000  3.849  7.710 24.183 21.219  0.0000  0.0000  0.0000
 1991 122    16    12     10  0.1415  0.0006  0.0894  0.0284  0.0113 0.00000  3.801  7.634 23.655 21.001  0.0000  0.0000  0.0000
 1991 123    17    13     11  0.1231  0.0006  0.0773  0.0252  0.0104 0.00000  3.757  7.561 24.574 20.427  0.0000  0.0000  0.0000
 1991 124    18    14     11  0.0444  0.0003  0.0265  0.0108  0.0035 0.00000  3.738  7.512 16.323 13.810  0.0000  0.0000  0.0000
 1991 125    19    15     11  0.0874  0.0002  0.0567  0.0198  0.0033 0.00000  3.734  7.510 14.077 10.651  0.0000  0.0000  0.0000
 1991 126    20    16     12  0.0759  0.0002  0.0494  0.0169  0.0028 0.00000  3.730  7.509 13.547  9.074  0.0000  0.0000  0.0000
 1991 127    21    17     12  0.0804  0.0002  0.0524  0.0176  0.0030 0.00000  3.725  7.507 14.216  9.205  0.0000  0.0000  0.0000
 1991 128    22    18     13  0.1227  0.0003  0.0806  0.0257  0.0052 0.00000  3.715  7.505 17.420 11.602  0.0000  0.0000  0.0000
 1991 129    23    19     14  0.1476  0.0004  0.0968  0.0303  0.0069 0.00000  3.702  7.500 18.612 13.307  0.0000  0.0000  0.0000
 1991 130    24    20     15  0.1070  0.0005  0.0688  0.0224  0.0063 0.00000  3.684  7.471 18.135 14.050  0.0000  0.0000  0.0000
 1991 131    25    21     16  0.1527  0.0005  0.0999  0.0314  0.0076 0.00000  3.669  7.461 18.480 13.825  0.0000  0.0000  0.0000
 1991 132    26    22     16  0.0531  0.0005  0.0320  0.0120  0.0048 0.00000  3.651  7.415 16.144 13.752  0.0000  0.0000  0.0000
 1991 133    27    23     16  0.0508  0.0005  0.0302  0.0118  0.0048 0.00000  3.633  7.367 14.803 13.827  0.0000  0.0000  0.0000
 1991 134    28    24     16  0.0580  0.0006  0.0328  0.0149  0.0056 0.00000  3.617  7.310 15.567 14.860  0.0000  0.0000  0.0000
 1991 135    29    25     17  0.0665  0.0006  0.0377  0.0171  0.0063 0.00000  3.601  7.250 16.910 15.465  0.0000  0.0000  0.0000
 1991 136    30    26     17  0.1249  0.0006  0.0732  0.0331  0.0074 0.00000  3.604  7.211 17.235 14.382  0.0000  0.0000  0.0000
 1991 137    31    27     18  0.1674  0.0005  0.1019  0.0427  0.0076 0.00000  3.616  7.201 16.801 12.777  0.0000  0.0000  0.0000
 1991 138    32    28     20  0.2606  0.0009  0.1606  0.0612  0.0166 0.00000  3.609  7.193 21.698 17.845  0.0000  0.0000  0.0000
 1991 139    33    29     22  0.3897  0.0012  0.2419  0.0864  0.0284 0.00000  3.595  7.214 24.629 20.678  0.0000  0.0000  0.0000
 1991 140    34    30     24  0.3959  0.0012  0.2484  0.0874  0.0270 0.00000  3.582  7.238 23.981 19.331  0.0000  0.0000  0.0000
 1991 141    35    31     25  0.1381  0.0012  0.0785  0.0363  0.0129 0.00000  3.567  7.168 19.163 17.358  0.0000  0.0000  0.0000
 1991 142    36    32     26  0.2075  0.0007  0.1232  0.0572  0.0100 0.00000  3.579  7.147 15.264 12.993  0.0000  0.0000  0.0000
 1991 143    37    33     28  0.2976  0.0006  0.1840  0.0746  0.0118 0.00000  3.594  7.167 16.181 12.210  0.0000  0.0000  0.0000
 1991 144    38    34     30  0.3127  0.0007  0.1951  0.0760  0.0125 0.00000  3.605  7.193 16.499 12.098  0.0000  0.0000  0.0000
 1991 145    39    35     32  0.3492  0.0011  0.2147  0.0848  0.0175 0.00000  3.607  7.197 17.477 14.778  0.0000  0.0000  0.0000
 1991 146    40    36     34  0.3796  0.0015  0.2346  0.0861  0.0249 0.00000  3.593  7.199 21.528 17.200  0.0000  0.0000  0.0000
 1991 147    41    37     38  0.5613  0.0028  0.3354  0.1180  0.0609 0.00000  3.554  7.184 28.062 25.201  0.0000  0.0000  0.0000
 1991 148    42    38     42  0.7143  0.0032  0.4162  0.1575  0.0807 0.00000  3.531  7.160 29.015 26.555  0.0000  0.0000  0.0000
 1991 149    43    39     44  0.4970  0.0034  0.2826  0.1146  0.0610 0.00000  3.500  7.087 27.026 25.366  0.0000  0.0000  0.0000
 1991 150    44    40     47  0.5032  0.0030  0.2989  0.1156  0.0495 0.00000  3.475  7.061 24.223 22.098  0.0000  0.0000  0.0000
 1991 151    45    41     53  1.0169  0.0030  0.6328  0.2226  0.0764 0.00000  3.465  7.157 24.766 21.481  0.0000  0.0000  0.0000
 1991 152    46    42     61  1.2423  0.0032  0.7762  0.2777  0.0829 0.00000  3.470  7.239 24.130 20.184  0.0000  0.0000  0.0000
 1991 153    47    43     64  0.5246  0.0031  0.3128  0.1277  0.0424 0.00000  3.460  7.195 20.869 18.218  0.0000  0.0000  0.0000
 1991 154    48    44     66  0.4158  0.0023  0.2456  0.1088  0.0280 0.00000  3.462  7.161 17.919 14.740  0.0000  0.0000  0.0000
 1991 155    49    45     69  0.5288  0.0010  0.3266  0.1373  0.0189 0.00000  3.482  7.178 12.589 10.437  0.0000  0.0000  0.0000
 1991 156    50    46     70  0.2301  0.0014  0.1338  0.0626  0.0156 0.00000  3.483  7.154 12.687 11.297  0.0000  0.0000  0.0000
 1991 157    51    47     71  0.1981  0.0003  0.1243  0.0475  0.0088 0.00000  3.487  7.169  8.889  7.203  0.0000  0.0000  0.0000
 1991 158    52    48     72  0.0845  0.0002  0.0487  0.0228  0.0062 0.00000  3.491  7.167  8.306  5.133  0.0000  0.0000  0.0000
 1991 159    53    49     73  0.1481  0.0004  0.0877  0.0410  0.0071 0.00000  3.497  7.165  9.064  4.473  0.0000  0.0000  0.0000
 1991 160    54    50     75  0.3378  0.0007  0.2110  0.0859  0.0113 0.00000  3.505  7.179 11.326  5.780  0.0000  0.0000  0.0000
 1991 161    55    51     77  0.3646  0.0008  0.2286  0.0904  0.0136 0.00000  3.511  7.193 12.144  7.690  0.0000  0.0000  0.0000
 1991 162    56    52     80  0.4595  0.0026  0.2742  0.1174  0.0310 0.00000  3.505  7.165 17.137 14.334  0.0000  0.0000  0.0000
 1991 163    57    53     81  0.2895  0.0018  0.1683  0.0787  0.0197 0.00000  3.504  7.138 13.425 11.810  0.0000  0.0000  0.0000
 1991 164    58    54     82  0.2126  0.0011  0.1235  0.0578  0.0143 0.00000  3.505  7.125 11.536  9.790  0.0000  0.0000  0.0000
 1991 165    59    55     86  0.6383  0.0034  0.3895  0.1526  0.0436 0.00000  3.493  7.114 18.654 15.887  0.0000  0.0000  0.0000
 1991 166    60    56     88  0.4322  0.0030  0.2624  0.1027  0.0325 0.00000  3.478  7.093 15.730 14.578  0.0000  0.0000  0.0000
 1991 167    61    57     91  0.4065  0.0026  0.2480  0.0970  0.0285 0.00000  3.468  7.078 15.190 13.379  0.0000  0.0000  0.0000
 1991 168    62    58     94  0.4956  0.0036  0.2997  0.1170  0.0394 0.00000  3.451  7.053 16.450 15.627  0.0000  0.0000  0.0000
 1991 169    63    59     99  0.9720  0.0048  0.5893  0.2298  0.0731 0.00000  3.441  7.049 22.247 18.133  0.0000  0.0000  0.0000
 1991 170    64    60    104  0.8116  0.0024  0.5081  0.1980  0.0349 0.00000  3.447  7.075 13.497 12.147  0.0000  0.0000  0.0000
 1991 171    65    61    106  0.3042  0.0016  0.1864  0.0726  0.0199 0.00000  3.444  7.071 11.597 10.247  0.0000  0.0000  0.0000
 1991 172    66    62    108  0.3337  0.0009  0.2078  0.0807  0.0159 0.00000  3.447  7.082 10.749  7.985  0.0000  0.0000  0.0000
 1991 173    67    63    109  0.2415  0.0008  0.1489  0.0577  0.0140 0.00000  3.448  7.087 10.417  7.455  0.0000  0.0000  0.0000
 1991 174    68    64    112  0.3889  0.0007  0.2448  0.0946  0.0142 0.00000  3.454  7.104  9.741  6.516  0.0000  0.0000  0.0000
 1991 175    69    65    115  0.5790  0.0011  0.3659  0.1413  0.0192 0.00000  3.462  7.126 11.696  6.759  0.0000  0.0000  0.0000
 1991 176    70    66    122  1.0364  0.0021  0.6532  0.2526  0.0371 0.00000  3.475  7.160 14.559 10.313  0.0000  0.0000  0.0000
 1991 177    71    67    125  0.6090  0.0047  0.3678  0.1425  0.0481 0.00123  3.467  7.156 16.599 14.953  0.0000  0.0000  0.0000
 1991 178    72    68    128  0.4982  0.0034  0.3427  0.0989  0.0354 0.00218  3.490  7.184 14.748 12.575  0.0000  0.0000  0.0000
 1991 179    73    69    131  0.4034  0.0011  0.2655  0.0888  0.0200 0.00201  3.511  7.231 10.425  8.514  0.0000  0.0000  0.0000
 1991 180    74    70    137  0.9652  0.0018  0.5761  0.2362  0.0322 0.00537  3.551  7.355 12.727  9.169  0.0000  0.0000  0.0000
 1991 181    75    71    142  0.9052  0.0023  0.5561  0.2132  0.0351 0.00626  3.590  7.475 14.104  9.457  0.0000  0.0000  0.0000
 1991 182    76    72    153  1.6988  0.0040  1.0453  0.3955  0.0683 0.01515  3.676  7.729 16.231 12.670  0.0000  0.0000  0.0000
 1991 183    77    73    162  1.6134  0.0036  0.9890  0.3785  0.0606 0.01692  3.761  7.973 15.797 11.279  0.0000  0.0000  0.0000
 1991 184    78    74    164  0.2583  0.0003  0.1441  0.0622  0.0164 0.00252  3.773  8.009  7.643  6.653  0.0000  0.0000  0.0000
 1991 185    79    75    164  0.0000  0.0003  0.0000  0.0000  0.0108 0.00000  3.771  8.006  7.076  4.170  0.0000  0.0000  0.0000
 1991 186    80    76    166  0.3429  0.0013  0.2031  0.0815  0.0178 0.00381  3.786  8.050  9.967  5.079  0.0000  0.0000  0.0000
 1991 187    81    77    173  1.1501  0.0034  0.7020  0.2714  0.0474 0.01482  3.847  8.226 13.850 10.743  0.0000  0.0000  0.0000
 1991 188    82    78    180  1.1523  0.0034  0.6983  0.2736  0.0466 0.01624  3.909  8.404 14.325  9.960  0.0000  0.0000  0.0000
 1991 189    83    79    185  0.7922  0.0049  0.4637  0.1888  0.0506 0.01215  3.941  8.506 15.586 11.914  0.0000  0.0000  0.0000
 1991 190    84    80    195  1.7113  0.0102  1.0023  0.4011  0.1207 0.03169  4.030  8.774 21.042 16.839  0.0000  0.0000  0.0000
 1991 191    85    81    198  0.5843  0.0022  0.3351  0.1436  0.0309 0.01105  4.063  8.872 11.074  8.591  0.0000  0.0000  0.0000
 1991 192    86    82    199  0.1463  0.0007  0.0711  0.0362  0.0168 0.00238  4.068  8.891  8.212  5.628  0.0000  0.0000  0.0000
 1991 193    87    83    199  0.0000  0.0002  0.0000  0.0000  0.0126 0.00000  4.067  8.889  6.566  4.212  0.0000  0.0000  0.0000
 1991 194    88    84    198  0.0000  0.0002  0.0000  0.0000  0.0116 0.00000  4.066  8.887  6.195  3.110  0.0000  0.0000  0.0000
 1991 195    89    85    198  0.0000  0.0006  0.0000  0.0000  0.0133 0.00000  4.064  8.882  7.483  3.599  0.0000  0.0000  0.0000
 1991 196    90    86    200  0.2513  0.0014  0.1386  0.0597  0.0187 0.00490  4.076  8.920  9.444  4.561  0.0000  0.0000  0.0000
 1991 197    91    87    206  1.0319  0.0042  0.6114  0.2473  0.0492 0.02301  4.144  9.115 13.815 10.424  0.0000  0.0000  0.0000
 1991 198    92    88    218  2.0077  0.0103  1.1747  0.4729  0.1195 0.04986  4.276  9.492 19.414 15.388  0.0000  0.0000  0.0000
 1991 199    93    89    222  0.7412  0.0073  0.4638  0.1545  0.0584 0.02122  4.328  9.620 15.151 12.421  0.0000  0.0000  0.0000
 1991 200    94    90    230  1.2227  0.0000  0.7391  0.2043  0.0518 0.12538  4.743 10.810 13.000  9.868  0.0000  0.0000  0.0000
 1991 201    95    91    250  2.8642  0.0000  1.4554  0.3313  0.1950 0.65066  6.748 16.449 21.781 17.980  0.0000  0.0000  0.0000
 1991 202    96    92    253  0.5090  0.0078  0.3260  0.0937  0.0439 0.01814  6.764 16.428 11.784 10.182  0.0000  0.0000  0.0000
 1991 203    97    93    253  0.1780  0.0012  0.0699  0.0417  0.0260 0.00400  6.758 16.420  8.020  7.419  0.0000  0.0000  0.0000
 1991 204    98    94    256  0.4207  0.0023  0.2749  0.0755  0.0288 0.01557  6.775 16.429  9.063  7.258  0.0000  0.0000  0.0000
 1991 205    99    95    265  1.4003  0.0000  0.8779  0.2254  0.0537 0.09265  6.959 16.831 13.044  8.495  0.0000  0.0000  0.0000
 1991 206   100    96    276  1.6489  0.0087  1.0375  0.3032  0.0642 0.06425  7.018 16.870 13.868  9.181  0.0000  0.0000  0.0000
 1991 207   101    97    301  3.7564  0.0000  2.2017  0.5355  0.2087 0.41997  7.872 18.985 20.888 15.896  0.0000  0.0000  0.0000
 1991 208   102    98    331  4.6920  0.0000  2.8180  0.6999  0.3035 0.39399  8.465 20.273 23.581 17.913  0.0000  0.0000  0.0000
 1991 209   103    99    364  5.1419  0.0520  3.3328  0.8583  0.3762 0.27661  8.568 20.218 23.788 19.726  0.0000  0.0000  0.0000
 1991 210   104   100    394  4.7027  0.0605  2.9730  0.8603  0.3806 0.26592  8.662 20.222 23.317 20.259  0.0000  0.0000  0.0000
 1991 211   105   101    400  1.4227  0.0350  0.3138  0.4972  0.1318 0.02782  8.505 20.024 17.848 14.014  0.0000  0.0000  0.0000
 1991 212   106   102    411  1.9166  0.0165  1.1308  0.4169  0.0914 0.10903  8.553 20.084 13.384 10.085  0.0000  0.0000  0.0000
 1991 213   107   103    411  0.0000  0.0000  0.0000  0.0000  0.0224 0.00000  8.553 20.084  5.270  3.248  0.0000  0.0000  0.0000
 1991 214   108   104    411  0.0000  0.0023  0.0000  0.0000  0.0267 0.00000  8.549 20.075  7.270  3.425  0.0000  0.0000  0.0000
 1991 215   109   105    413  0.4910  0.0058  0.0856  0.1714  0.0381 0.00779  8.503 20.030  9.293  4.972  0.0000  0.0000  0.0000
 1991 216   110   106    415  0.3681  0.0058  0.1792  0.0750  0.0437 0.01715  8.498 20.023  9.499  7.168  0.0000  0.0000  0.0000
 1991 217   111   107    429  2.0685  0.0000  1.1872  0.2920  0.0873 0.27910  8.837 20.882 12.835  9.216  0.0000  0.0000  0.0000
 1991 218   112   108    429  0.1412  0.0032  0.0000  0.0468  0.0342 0.00000  8.818 20.860  8.127  5.486  0.0000  0.0000  0.0000
 1991 219   113   109    434  1.1523  0.0149  0.3540  0.2891  0.0701 0.03568  8.749 20.788 12.767  8.328  0.0000  0.0000  0.0000
 1991 220   114   110    449  2.4828  0.0269  1.4845  0.4253  0.1290 0.15833  8.820 20.869 14.858 11.737  0.0000  0.0000  0.0000
 1991 221   115   111    456  1.4102  0.0347  0.4513  0.4003  0.1213 0.04738  8.725 20.744 14.642 12.843  0.0000  0.0000  0.0000
 1991 222   116   112    459  0.7882  0.0171  0.1103  0.2918  0.0740 0.01023  8.642 20.645 11.144  9.853  0.0000  0.0000  0.0000
 1991 223   117   113    462  1.1724  0.0138  0.2964  0.3992  0.0746 0.03275  8.627 20.627 11.614  9.062  0.0000  0.0000  0.0000
 1991 224   118   114    471  1.8070  0.0163  0.8644  0.4699  0.0836 0.10105  8.704 20.728 12.977  8.107  0.0000  0.0000  0.0000
 1991 225   119   115    488  3.0984  0.0339  1.8883  0.6162  0.1648 0.22802  8.876 20.954 16.297 12.479  0.0000  0.0000  0.0000
 1991 226   120   116    532  6.4015  0.0000  3.3432  0.8082  0.4267 1.30280 10.335 24.656 22.780 17.695  0.0000  0.0000  0.0000
 1991 227   121   117    567  5.5699  0.0000  3.3146  0.8323  0.4836 0.53110 10.713 25.301 23.367 19.985  0.0000  0.0000  0.0000
 1991 228   122   118    609  6.5818  0.0000  3.7017  0.9153  0.5731 0.88417 11.418 26.831 24.791 20.380  0.0000  0.0000  0.0000
 1991 229   123   119    656  7.0903  0.0000  3.7681  0.9664  0.4927 1.25581 12.407 29.141 22.201 17.785  0.0000  0.0000  0.0000
 1991 230   124   120    684  4.8670  0.1379  2.9045  0.8927  0.4348 0.42042 12.436 28.972 21.831 18.336  0.0000  0.0000  0.0000
 1991 231   125   121    725  6.5023  0.0000  3.7132  1.0257  0.5101 0.69456 12.769 29.525 23.097 17.917  0.0000  0.0000  0.0000
 1991 232   126   122    755  5.3552  0.1570  3.1472  0.9925  0.4952 0.45315 12.802 29.399 23.280 18.405  0.0000  0.0000  0.0000
 1991 233   127   123    802  7.5821  0.0000  3.9835  1.1323  0.5964 1.16886 13.475 30.867 23.253 18.303  0.0000  0.0000  0.0000
 1991 234   128   124    849  7.8366  0.0000  4.0740  1.1939  0.7163 1.11842 14.071 32.087 24.157 20.098  0.0000  0.0000  0.0000
 1991 235   129   125    894  7.4028  0.0000  4.0139  1.2102  0.5709 0.88576 14.446 32.763 20.256 17.811  0.0000  0.0000  0.0000
 1991 236   130   126    930  6.1187  0.1507  3.5887  1.1684  0.4138 0.56017 14.474 32.664 18.664 14.940  0.0000  0.0000  0.0000
 1991 237   131   127    972  7.1735  0.2153  4.2455  1.2817  0.5929 0.70573 14.538 32.569 22.146 17.453  0.0000  0.0000  0.0000
 1991 238   132   128    979  2.2106  0.1672  0.9010  0.6686  0.2847 0.00000 14.379 32.301 15.965 14.238  0.0000  0.0000  0.0000
 1991 239   133   129    986  1.9353  0.1490  1.0009  0.4962  0.2440 0.02908 14.282 32.105 15.082 13.008  0.0000  0.0000  0.0000
 1991 240   134   130   1012  5.2078  0.2280  3.0968  0.9411  0.4730 0.49398 14.336 32.021 19.674 16.456  0.0000  0.0000  0.0000
 1991 241   135   131   1041  5.8954  0.2827  3.4289  1.0812  0.5993 0.53138 14.375 31.908 21.247 18.337  6.3307 16.8832 35.0500
 1991 242   136   132   1061  4.8107  0.3326  2.7112  0.9512  0.6461 0.28801 14.348 31.670 22.690 19.847  6.2593 18.0559 34.3234
 1991 243   137   133   1068  2.1585  0.2116  1.0612  0.6050  0.2882 0.00000 14.211 31.399 15.737 13.723  6.3668 16.6846 35.0228
 1991 244   138   134   1081  2.8193  0.1783  1.4639  0.7259  0.2507 0.09567 14.119 31.213 14.639 11.860  6.4867 15.3684 35.5900
 1991 245   139   135   1090  2.3570  0.2407  1.2535  0.6273  0.3204 0.00000 13.965 30.905 16.681 14.352  6.5018 15.0824 35.7814
 1991 246   140   136   1115  5.7470  0.3289  3.3145  1.1019  0.6113 0.46826 13.990 30.797 21.206 18.143  6.4445 15.7139 35.5080
 1991 247   141   137   1167  9.3892  0.0000  4.8807  1.3972  0.8552 1.37523 14.621 32.022 23.527 19.137  6.3565 16.8180 34.9540
 1991 248   142   138   1212  9.6888  0.0000  4.8178  1.3921  0.9745 1.58304 15.368 33.548 24.810 20.173  6.2924 17.8081 34.3646
 1991 249   143   139   1219  3.5561  0.4586  2.0191  0.8696  0.6102 0.00000 15.173 33.075 21.337 19.068  6.2458 18.2975 34.1662
 1991 250   144   140   1226  2.4403  0.3556  1.3141  0.6902  0.3723 0.00000 14.987 32.684 16.416 14.879  6.3225 17.1743 34.8098
 1991 251   145   141   1222  2.4262  0.3298  1.3540  0.6651  0.3291 0.00000 14.814 32.319 15.929 13.621  6.3974 16.2458 35.2705
 1991 252   146   142   1238  5.4665  0.3395  3.2543  1.0813  0.4331 0.46506 14.832 32.202 17.949 13.890  6.4515 15.5501 35.6278
 1991 253   147   143   1276  6.9711  0.3990  4.2015  1.2779  0.5805 0.70093 14.884 32.147 19.923 15.790  6.4350 15.6269 35.6544
 1991 254   148   144   1315  8.9377  0.0000  4.1943  1.2468  0.7885 1.86973 15.762 34.084 22.510 17.532  6.3942 16.0778 35.4586
 1991 255   149   145   1351  9.8096  0.0000  4.1779  1.2689  1.0842 2.36166 16.870 36.526 25.408 20.601  6.3440 16.9545 34.8954
 1991 256   150   146   1387  8.2753  0.0000  3.7637  1.2430  1.2418 1.25974 17.529 37.792 28.161 23.034  6.3312 17.7704 34.1597
 1991 257   151   147   1394  2.6782  0.5294  1.7547  0.7254  0.4118 0.00000 17.363 37.343 18.714 14.075  6.3720 17.1318 34.5431
 1991 258   152   148   1396  1.2517  0.4086  0.8709  0.4278  0.2173 0.00000 17.201 36.976 11.593 10.151  6.4631 16.1605 34.9454
 1991 259   153   149   1414  5.7265  0.6494  3.4088  1.3802  0.6975 0.14319 17.040 36.459 21.593 17.685  6.4295 16.4105 34.9053
 1991 260   154   150   1420  3.4760  0.6948  2.2230  0.8674  0.6744 0.00000 16.804 35.842 20.416 19.006  6.3943 16.7694 34.7660
 1991 261   155   151   1445  6.5278  0.0000  2.5074  0.8471  0.6259 1.93237 17.817 38.086 18.575 16.248  6.3886 16.7214 34.8502
 1991 262   156   152   1466  4.8612  0.5614  3.0737  1.0741  0.4073 0.27385 17.700 37.673 15.857 12.858  6.4256 16.2596 35.0803
 1991 263   157   153   1470  5.2152  0.6444  3.1700  1.1797  0.5650 0.23076 17.544 37.180 20.183 15.133  6.4289 16.1452 35.1740
 1991 264   158   154   1475  6.0494  0.7917  3.5835  1.4031  0.9025 0.14351 17.323 36.536 24.991 19.726  6.3996 16.5177 34.9848
 1991 265   159   155   1496  6.0444  0.6432  3.5293  1.4978  0.5680 0.24426 17.161 36.040 18.623 15.088  6.4065 16.3577 35.1015
 1991 266   160   156   1510  3.4607  0.5127  2.1872  0.8923  0.2866 0.23391 17.012 35.646 14.612  9.766  6.4601 15.8179 35.3067
 1991 267   161   157   1529  4.6435  0.5605  2.8624  1.1372  0.3874 0.32236 16.838 35.216 16.655 11.666  6.4942 15.4379 35.4733
 1991 268   162   158   1542  5.8775  0.6498  3.7945  1.2807  0.5638 0.43233 16.692 34.781 19.046 14.656  6.4963 15.3526 35.5454
 1991 269   163   159   1575  6.6986  0.6759  4.1582  1.4093  0.6517 0.60805 16.553 34.384 20.826 15.301  6.4918 15.3433 35.5828
 1991 270   164   160   1588  7.9222  0.8489  4.8613  1.5493  1.1005 0.64999 16.359 33.862 25.499 20.539  6.4621 15.7655 35.3462
 1991 271   165   161   1576  4.2320  0.6139  2.6973  1.1360  0.3966 0.18183 16.200 33.394 14.938 12.421  6.4905 15.4318 35.5028
 1991 272   166   162   1593  4.5245  0.6131  2.8504  1.2071  0.4201 0.21182 16.039 32.929 16.288 12.565  6.5159 15.1280 35.6478
 1991 273   167   163   1607  5.5507  0.6793  3.6292  1.3037  0.5677 0.32691 15.864 32.452 18.495 14.770  6.5150 15.0808 35.7002
 1991 274   168   164   1619  4.2055  0.6179  2.6691  1.1513  0.4206 0.16502 15.691 31.962 16.556 12.511  6.5364 14.8308 35.8168
 1991 275   169   165   1633  4.1817  0.6034  2.6790  1.0953  0.3983 0.23988 15.527 31.517 16.353 11.846  6.5601 14.5699 35.9294
 1991 276   170   166   1653  4.3662  0.6090  3.0065  0.9900  0.4118 0.38418 15.373 31.133 17.231 11.551  6.5832 14.3223 36.0329
 1991 277   171   167   1666  4.8778  0.6621  3.2647  1.1241  0.5348 0.32921 15.197 30.680 19.237 13.768  6.5867 14.2537 36.0797
 1991 278   172   168   1664  1.4767  0.6173  1.3694  0.5058  0.3288 0.00000 14.982 30.099 13.122 12.056  6.6062 14.0359 36.1753
 1991 279   173   169   1667  1.6553  0.5470  1.2785  0.6075  0.2484 0.00000 14.761 29.563 11.627  9.672  6.6362 13.7455 36.2782
 1991 280   174   170   1671  1.7938  0.5413  1.3102  0.6192  0.2418 0.05957 14.534 29.053 12.588  8.961  6.6652 13.4722 36.3706
 1991 281   175   171   1675  3.2287  0.5673  2.0319  0.9362  0.3226 0.19732 14.290 28.574 14.853 10.229  6.6882 13.2435 36.4553
 1991 282   176   172   1694  4.7179  0.6408  2.7763  1.2659  0.5331 0.25208 14.031 28.055 18.766 13.928  6.6846 13.2500 36.4711
 1991 283   177   173   1690  5.9071  0.6654  3.4832  1.3965  0.6495 0.45740 13.845 27.670 20.615 14.957  6.6742 13.3301 36.4564
 1991 284   178   174   1692  6.7374  0.5545  4.0526  1.3334  0.7957 0.59780 13.802 27.559 22.462 16.660  6.6528 13.5346 36.3854
 1991 285   179   175   1724  7.8605  0.0000  3.7669  1.3905  1.1709 0.93658 14.309 28.589 26.563 20.509  6.6214 13.9475 36.1686
 1991 286   180   176   1664  7.2198  0.3995  3.6200  1.3333  1.7328 0.45674 14.240 28.111 30.991 26.360  6.6187 14.3664 35.7669
 1991 287   181   177   1575  3.7959  0.8744  2.1295  0.9077  1.4226 0.00000 13.671 26.705 30.322 26.438  6.6166 14.7431 35.4031
 1991 288   182   178   1511  2.0025  0.6592  1.3628  0.5002  0.7683 0.00000 13.183 25.527 22.595 20.492  6.5971 14.9672 35.3012
 1991 289   183   179   1469  0.9821  0.4829  0.8670  0.2825  0.3966 0.00000 12.786 24.578 16.852 14.642  6.5950 14.9508 35.3306
 1991 290   184   180   1426  0.9980  0.3987  0.8383  0.3128  0.2939 0.00000 12.429 23.754 14.842 12.132  6.6035 14.8345 35.3937
 1991 291   185   181   1399  1.5683  0.4014  1.0357  0.4031  0.4161 0.00000 12.040 22.923 19.512 14.840  6.6002 14.8285 35.4205
 1991 292   186   182   1375  1.5284  0.4066  0.9390  0.3709  0.5325 0.00000 11.619 22.077 22.543 17.692  6.5903 14.9108 35.4000
 1991 293   187   183   1353  1.2271  0.3870  0.7526  0.2738  0.5455 0.00000 11.194 21.258 23.031 18.607  6.5818 14.9900 35.3735
 1991 294   188   184   1332  0.9732  0.3925  0.5386  0.1545  0.6908 0.00000 10.738 20.417 27.287 21.791  6.5763 15.0698 35.3284
 1991 295   189   185   1306  0.6630  0.3947  0.2068  0.0593  0.8002 0.00000 10.229 19.549 28.388 24.783  6.5755 15.1014 35.3019
 1991 296   190   186   1292  0.1892  0.2853  0.1149  0.0330  0.3410 0.00000  9.848 18.896 18.131 15.810  6.5749 15.1038 35.3032
 1991 297   191   187   1282  0.1181  0.2515  0.0911  0.0261  0.2696 0.00000  9.504 18.310 16.330 13.758  6.5751 15.0988 35.3071

*DSSAT Cropping System Model Ver. 4.6.1.000 -release      APR 20, 2017; 11:17:54
                                                                                
*RUN   3        : UYSB                      CRGRO046 UYSB1239    1              
 MODEL          : CRGRO046 - Soybean                                            
 EXPERIMENT     : UYSB1239 SN late to create DSS                                
 DATA PATH      :                                                               
 TREATMENT  1   : UYSB                      CRGRO046                            
  
@YEAR DOY   DAS   DAP   TWAD    PHAD    CMAD    CGRD    GRAD    MRAD    CHAD   CL%D   CS%D   TGNN   TGAV    GN%D    GL%D    GC%D
 1992 110     4     0      0  0.0000  0.0000  0.0000  0.0000  0.0000 0.00000  0.000  0.000 20.121 18.158  0.0000  0.0000  0.0000
 1992 111     5     1      0  0.0000  0.0000  0.0000  0.0000  0.0000 0.00000  0.000  0.000 18.638 15.266  0.0000  0.0000  0.0000
 1992 112     6     2      0  0.0000  0.0000  0.0000  0.0000  0.0000 0.00000  0.000  0.000 19.995 14.943  0.0000  0.0000  0.0000
 1992 113     7     3      0  0.0000  0.0000  0.0000  0.0000  0.0000 0.00000  0.000  0.000 23.719 18.912  0.0000  0.0000  0.0000
 1992 114     8     4      0  0.0000  0.0000  0.0000  0.0000  0.0000 0.00000  0.000  0.000 17.423 14.611  0.0000  0.0000  0.0000
 1992 115     9     5      0  0.0000  0.0000  0.0000  0.0000  0.0000 0.00000  0.000  0.000 20.261 16.286  0.0000  0.0000  0.0000
 1992 116    10     6      0  0.0000  0.0000  0.0000  0.0000  0.0000 0.00000  0.000  0.000 19.281 14.831  0.0000  0.0000  0.0000
 1992 117    11     7      0  0.0000  0.0000  0.0000  0.0000  0.0000 0.00000  0.000  0.000 19.300 16.837  0.0000  0.0000  0.0000
 1992 118    12     8      8  0.0000  0.0005  0.0003  0.0001  0.0000 0.00000  3.946  7.886 22.077 19.413  0.0000  0.0000  0.0000
 1992 119    13     9      8  0.0410  0.0004  0.0240  0.0098  0.0039 0.00000  3.905  7.798 19.020 17.314  0.0000  0.0000  0.0000
 1992 120    14    10      8  0.0416  0.0004  0.0338  0.0066  0.0036 0.00000  3.886  7.723 18.381 16.267  0.0000  0.0000  0.0000
 1992 121    15    11      8  0.0470  0.0002  0.0373  0.0077  0.0025 0.00000  3.872  7.684 14.397 12.149  0.0000  0.0000  0.0000
 1992 122    16    12      9  0.0778  0.0002  0.0621  0.0123  0.0031 0.00000  3.860  7.658 14.877 11.747  0.0000  0.0000  0.0000
 1992 123    17    13      9  0.0832  0.0002  0.0501  0.0195  0.0033 0.00000  3.841  7.644 15.554 11.373  0.0000  0.0000  0.0000
 1992 124    18    14     10  0.1210  0.0003  0.0769  0.0255  0.0058 0.00000  3.818  7.624 19.207 14.113  0.0000  0.0000  0.0000
 1992 125    19    15     11  0.1140  0.0005  0.0719  0.0231  0.0079 0.00000  3.780  7.570 20.638 17.992  0.0000  0.0000  0.0000
 1992 126    20    16     12  0.1927  0.0007  0.1237  0.0376  0.0133 0.00000  3.742  7.538 23.031 19.709  0.0000  0.0000  0.0000
 1992 127    21    17     13  0.1924  0.0008  0.1234  0.0370  0.0144 0.00000  3.702  7.498 23.862 20.274  0.0000  0.0000  0.0000
 1992 128    22    18     13  0.0672  0.0007  0.0406  0.0142  0.0072 0.00000  3.665  7.423 18.717 18.243  0.0000  0.0000  0.0000
 1992 129    23    19     14  0.0903  0.0007  0.0671  0.0134  0.0088 0.00000  3.647  7.362 20.466 18.912  0.0000  0.0000  0.0000
 1992 130    24    20     14  0.0827  0.0008  0.0447  0.0176  0.0087 0.00000  3.603  7.291 20.344 18.927  0.0000  0.0000  0.0000
 1992 131    25    21     15  0.0875  0.0008  0.0715  0.0127  0.0094 0.00000  3.615  7.200 20.150 19.408  0.0000  0.0000  0.0000
 1992 132    26    22     15  0.0932  0.0008  0.0609  0.0187  0.0089 0.00000  3.619  7.124 19.954 18.236  0.0000  0.0000  0.0000
 1992 133    27    23     17  0.1750  0.0005  0.1166  0.0384  0.0090 0.00000  3.651  7.108 17.869 14.873  0.0000  0.0000  0.0000
 1992 134    28    24     18  0.1897  0.0004  0.1259  0.0405  0.0076 0.00000  3.680  7.115 15.722 12.662  0.0000  0.0000  0.0000
 1992 135    29    25     19  0.2039  0.0004  0.1361  0.0395  0.0081 0.00000  3.702  7.140 16.161 12.364  0.0000  0.0000  0.0000
 1992 136    30    26     20  0.1543  0.0007  0.0734  0.0354  0.0096 0.00000  3.661  7.111 18.365 15.076  0.0000  0.0000  0.0000
 1992 137    31    27     21  0.2266  0.0006  0.1346  0.0477  0.0108 0.00000  3.651  7.126 16.955 14.306  0.0000  0.0000  0.0000
 1992 138    32    28     23  0.3320  0.0007  0.2102  0.0651  0.0157 0.00000  3.646  7.193 19.847 14.787  0.0000  0.0000  0.0000
 1992 139    33    29     24  0.1432  0.0003  0.0879  0.0317  0.0055 0.00000  3.650  7.202 12.023  9.980  0.0000  0.0000  0.0000
 1992 140    34    30     25  0.1100  0.0002  0.0668  0.0258  0.0040 0.00000  3.656  7.206 11.058  7.646  0.0000  0.0000  0.0000
 1992 141    35    31     25  0.1380  0.0003  0.0830  0.0339  0.0049 0.00000  3.664  7.204 12.915  7.701  0.0000  0.0000  0.0000
 1992 142    36    32     26  0.1140  0.0004  0.0674  0.0280  0.0060 0.00000  3.664  7.189 14.135 10.395  0.0000  0.0000  0.0000
 1992 143    37    33     27  0.1696  0.0005  0.1008  0.0423  0.0080 0.00000  3.665  7.175 14.558 11.655  0.0000  0.0000  0.0000
 1992 144    38    34     28  0.1582  0.0003  0.0967  0.0397  0.0055 0.00000  3.672  7.185 11.920  8.653  0.0000  0.0000  0.0000
 1992 145    39    35     28  0.1271  0.0003  0.0770  0.0327  0.0050 0.00000  3.675  7.186 12.198  7.967  0.0000  0.0000  0.0000
 1992 146    40    36     30  0.1989  0.0010  0.1184  0.0492  0.0129 0.00000  3.662  7.161 18.541 14.546  0.0000  0.0000  0.0000
 1992 147    41    37     31  0.2208  0.0015  0.1305  0.0518  0.0193 0.00000  3.634  7.119 20.317 18.322  0.0000  0.0000  0.0000
 1992 148    42    38     32  0.1465  0.0008  0.0853  0.0382  0.0100 0.00000  3.625  7.089 15.979 13.153  0.0000  0.0000  0.0000
 1992 149    43    39     32  0.0700  0.0004  0.0404  0.0185  0.0053 0.00000  3.620  7.076 10.549  9.852  0.0000  0.0000  0.0000
 1992 150    44    40     32  0.0606  0.0001  0.0363  0.0155  0.0035 0.00000  3.621  7.080  9.222  6.633  0.0000  0.0000  0.0000
 1992 151    45    41     33  0.1619  0.0003  0.1008  0.0401  0.0057 0.00000  3.625  7.101 11.846  7.302  0.0000  0.0000  0.0000
 1992 152    46    42     35  0.2508  0.0005  0.1588  0.0584  0.0088 0.00000  3.626  7.142 14.095  9.023  0.0000  0.0000  0.0000
 1992 153    47    43     37  0.3135  0.0006  0.1997  0.0707  0.0115 0.00000  3.627  7.190 15.105 10.367  0.0000  0.0000  0.0000
 1992 154    48    44     37  0.1229  0.0007  0.0714  0.0311  0.0087 0.00000  3.620  7.167 14.087 11.471  0.0000  0.0000  0.0000
 1992 155    49    45     40  0.3509  0.0008  0.2221  0.0833  0.0138 0.00000  3.620  7.208 14.850 11.574  0.0000  0.0000  0.0000
 1992 156    50    46     40  0.1002  0.0005  0.0582  0.0261  0.0070 0.00000  3.616  7.193 12.825  9.517  0.0000  0.0000  0.0000
 1992 157    51    47     41  0.2004  0.0000  0.1248  0.0322  0.0172 0.01705  4.327  7.790 16.599 15.839  0.0000  0.0000  0.0000
 1992 158    52    48     43  0.2214  0.0000  0.1399  0.0341  0.0180 0.01743  4.999  8.364 17.648 15.599  0.0000  0.0000  0.0000
 1992 159    53    49     44  0.2860  0.0000  0.1781  0.0406  0.0260 0.02592  5.930  9.158 19.639 18.186  0.0000  0.0000  0.0000
 1992 160    54    50     47  0.3960  0.0000  0.2301  0.0519  0.0251 0.05823  7.882 10.793 19.035 15.767  0.0000  0.0000  0.0000
 1992 161    55    51     48  0.2219  0.0000  0.1433  0.0408  0.0083 0.00758  8.035 10.893 10.093  8.575  0.0000  0.0000  0.0000
 1992 162    56    52     51  0.4026  0.0000  0.2382  0.0626  0.0144 0.04369  9.223 11.826 13.518 10.385  0.0000  0.0000  0.0000
 1992 163    57    53     53  0.3046  0.0009  0.2027  0.0554  0.0105 0.00000  9.030 11.581 11.535  8.733  0.0000  0.0000  0.0000
 1992 164    58    54     55  0.3488  0.0014  0.2104  0.0667  0.0129 0.00000  8.816 11.312 13.592  9.077  0.0000  0.0000  0.0000
 1992 165    59    55     58  0.5064  0.0035  0.3172  0.0965  0.0288 0.00000  8.512 10.936 17.676 14.942  0.0000  0.0000  0.0000
 1992 166    60    56     65  1.0451  0.0045  0.7080  0.1854  0.0582 0.00000  8.177 10.253 22.014 16.941  0.0000  0.0000  0.0000
 1992 167    61    57     66  0.3960  0.0049  0.1259  0.1031  0.0345 0.00000  7.846 10.083 19.752 16.986  0.0000  0.0000  0.0000
 1992 168    62    58     72  0.8864  0.0053  0.5788  0.1664  0.0564 0.00000  7.583  9.707 20.697 17.701  0.0000  0.0000  0.0000
 1992 169    63    59     79  1.1029  0.0044  0.7192  0.2132  0.0549 0.00000  7.321  9.374 19.513 15.498  0.0000  0.0000  0.0000
 1992 170    64    60     83  0.7718  0.0064  0.3680  0.1801  0.0609 0.00000  7.041  9.149 21.540 18.610  0.0000  0.0000  0.0000
 1992 171    65    61     91  1.3693  0.0062  0.9017  0.2635  0.0828 0.00000  6.823  8.862 21.443 17.921  0.0000  0.0000  0.0000
 1992 172    66    62     98  1.1381  0.0070  0.6530  0.2498  0.0806 0.00000  6.592  8.660 22.132 18.446  0.0000  0.0000  0.0000
 1992 173    67    63    100  0.5378  0.0068  0.2050  0.1613  0.0518 0.00000  6.421  8.538 18.897 17.547  0.0000  0.0000  0.0000
 1992 174    68    64    104  0.7564  0.0070  0.5021  0.1512  0.0625 0.00000  6.291  8.407 19.610 17.833  0.0000  0.0000  0.0000
 1992 175    69    65    107  0.5205  0.0060  0.3469  0.1013  0.0457 0.00000  6.204  8.309 17.375 15.993  0.0000  0.0000  0.0000
 1992 176    70    66    112  0.8606  0.0075  0.6044  0.1596  0.0699 0.00000  6.072  8.191 19.095 18.042  0.0000  0.0000  0.0000
 1992 177    71    67    122  1.6595  0.0000  1.0101  0.2551  0.1488 0.10921  6.759 10.528 24.783 22.215  0.0000  0.0000  0.0000
 1992 178    72    68    127  0.8178  0.0078  0.4989  0.1610  0.0621 0.00417  6.634 10.384 19.950 15.834  0.0000  0.0000  0.0000
 1992 179    73    69    129  0.3761  0.0008  0.2397  0.0803  0.0158 0.00216  6.601 10.360  8.981  7.004  0.0000  0.0000  0.0000
 1992 180    74    70    130  0.2078  0.0007  0.0000  0.0854  0.0119 0.00000  6.534 10.338  8.378  5.347  0.0000  0.0000  0.0000
 1992 181    75    71    130  0.1663  0.0010  0.0000  0.0766  0.0147 0.00000  6.479 10.315  9.292  7.480  0.0000  0.0000  0.0000
 1992 182    76    72    130  0.0872  0.0006  0.0000  0.0381  0.0113 0.00000  6.452 10.303  8.242  5.902  0.0000  0.0000  0.0000
 1992 183    77    73    131  0.2094  0.0013  0.0021  0.0706  0.0168 0.00003  6.405 10.279  9.882  8.200  0.0000  0.0000  0.0000
 1992 184    78    74    135  0.7208  0.0019  0.3747  0.1665  0.0245 0.00498  6.338 10.261 11.320  8.185  0.0000  0.0000  0.0000
 1992 185    79    75    138  0.6039  0.0017  0.3295  0.1363  0.0208 0.00474  6.289 10.253 11.001  6.775  0.0000  0.0000  0.0000
 1992 186    80    76    140  0.4187  0.0041  0.2225  0.0919  0.0303 0.00377  6.242 10.225 12.886 11.202  0.0000  0.0000  0.0000
 1992 187    81    77    144  0.5849  0.0017  0.3426  0.1268  0.0239 0.00624  6.212 10.243 10.400  8.583  0.0000  0.0000  0.0000
 1992 188    82    78    144  0.0000  0.0004  0.0000  0.0000  0.0093 0.00000  6.209 10.239  7.087  3.880  0.0000  0.0000  0.0000
 1992 189    83    79    144  0.0000  0.0007  0.0000  0.0000  0.0102 0.00000  6.205 10.231  8.016  3.782  0.0000  0.0000  0.0000
 1992 190    84    80    149  0.9365  0.0032  0.5661  0.2127  0.0344 0.01183  6.169 10.281 13.743  8.778  0.0000  0.0000  0.0000
 1992 191    85    81    158  1.4446  0.0051  0.8756  0.3286  0.0588 0.02072  6.131 10.387 16.335 11.500  0.0000  0.0000  0.0000
 1992 192    86    82    173  2.3573  0.0097  1.5849  0.4581  0.1214 0.04668  6.154 10.672 20.079 15.606  0.0000  0.0000  0.0000
 1992 193    87    83    191  2.6784  0.0000  1.6958  0.4930  0.1458 0.12497  6.532 11.914 21.046 16.206  0.0000  0.0000  0.0000
 1992 194    88    84    211  3.1048  0.0000  1.9005  0.5467  0.1867 0.21771  7.160 13.822 21.862 17.649  0.0000  0.0000  0.0000
 1992 195    89    85    227  2.7214  0.0231  1.7201  0.5577  0.2046 0.07934  7.171 13.917 23.218 19.235  0.0000  0.0000  0.0000
 1992 196    90    86    230  0.5903  0.0069  0.3652  0.1258  0.0436 0.01770  7.168 13.929 13.881  9.828  0.0000  0.0000  0.0000
 1992 197    91    87    230  0.0000  0.0000  0.0000  0.0000  0.0135 0.00000  7.168 13.929  5.793  3.765  0.0000  0.0000  0.0000
 1992 198    92    88    230  0.0000  0.0000  0.0000  0.0000  0.0117 0.00000  7.168 13.929  4.869  2.174  0.0000  0.0000  0.0000
 1992 199    93    89    230  0.0000  0.0006  0.0000  0.0000  0.0141 0.00000  7.166 13.924  6.697  3.101  0.0000  0.0000  0.0000
 1992 200    94    90    230  0.0000  0.0000  0.0000  0.0000  0.0153 0.00000  7.166 13.924  6.077  4.944  0.0000  0.0000  0.0000
 1992 201    95    91    230  0.2095  0.0023  0.0000  0.1013  0.0230 0.00000  7.121 13.891  9.396  6.562  0.0000  0.0000  0.0000
 1992 202    96    92    236  1.1640  0.0056  0.3398  0.3723  0.0441 0.01768  7.007 13.862 12.892  7.520  0.0000  0.0000  0.0000
 1992 203    97    93    237  0.2817  0.0012  0.0000  0.1526  0.0210 0.00000  6.956 13.831  8.138  5.666  0.0000  0.0000  0.0000
 1992 204    98    94    237  0.0000  0.0004  0.0000  0.0000  0.0139 0.00000  6.954 13.828  6.315  3.006  0.0000  0.0000  0.0000
 1992 205    99    95    237  0.0000  0.0004  0.0000  0.0000  0.0140 0.00000  6.953 13.825  6.363  3.118  0.0000  0.0000  0.0000
 1992 206   100    96    237  0.0651  0.0015  0.0000  0.0309  0.0175 0.00000  6.939 13.810  8.113  4.296  0.0000  0.0000  0.0000
 1992 207   101    97    242  1.1806  0.0057  0.3865  0.3909  0.0480 0.02139  6.883 13.822 12.736  8.782  0.0000  0.0000  0.0000
 1992 208   102    98    244  0.5593  0.0077  0.1752  0.1833  0.0452 0.01012  6.848 13.799 11.321 10.550  0.0000  0.0000  0.0000
 1992 209   103    99    251  1.3922  0.0060  0.7646  0.3517  0.0545 0.04561  6.899 13.947 12.298  9.545  0.0000  0.0000  0.0000
 1992 210   104   100    252  0.2454  0.0025  0.1201  0.0605  0.0256 0.00727  6.906 13.963  9.424  6.702  0.0000  0.0000  0.0000
 1992 211   105   101    263  1.8497  0.0129  1.0767  0.4344  0.0912 0.06897  6.957 14.149 15.211 12.622  0.0000  0.0000  0.0000
 1992 212   106   102    267  0.6455  0.0080  0.3533  0.1531  0.0492 0.02347  6.961 14.189 12.345 10.292  0.0000  0.0000  0.0000
 1992 213   107   103    268  0.2304  0.0014  0.1110  0.0563  0.0247 0.00745  6.965 14.208  8.252  6.365  0.0000  0.0000  0.0000
 1992 214   108   104    268  0.0000  0.0007  0.0000  0.0000  0.0175 0.00000  6.966 14.206  7.042  4.142  0.0000  0.0000  0.0000
 1992 215   109   105    271  0.5253  0.0030  0.2922  0.1265  0.0280 0.01996  6.980 14.262  9.576  5.559  0.0000  0.0000  0.0000
 1992 216   110   106    276  0.9143  0.0045  0.5223  0.2194  0.0377 0.03636  7.011 14.370 11.020  6.560  0.0000  0.0000  0.0000
 1992 217   111   107    280  0.6053  0.0037  0.3333  0.1467  0.0324 0.02357  7.028 14.434 10.214  6.391  0.0000  0.0000  0.0000
 1992 218   112   108    288  1.4080  0.0078  0.8066  0.3367  0.0561 0.05877  7.077 14.600 13.629  7.298  0.0000  0.0000  0.0000
 1992 219   113   109    318  4.4263  0.0000  2.4818  0.6819  0.2362 0.65493  8.396 18.231 21.842 15.505  0.0000  0.0000  0.0000
 1992 220   114   110    325  1.4396  0.0268  0.5352  0.4337  0.1195 0.04313  8.284 18.113 18.757 14.279  0.0000  0.0000  0.0000
 1992 221   115   111    325  0.4183  0.0029  0.0000  0.2195  0.0296 0.00000  8.261 18.091  8.604  5.548  0.0000  0.0000  0.0000
 1992 222   116   112    327  0.6604  0.0061  0.2666  0.1956  0.0377 0.02182  8.295 18.127 10.616  5.857  0.0000  0.0000  0.0000
 1992 223   117   113    336  1.7205  0.0162  0.9015  0.4306  0.0880 0.07723  8.324 18.192 13.894 11.308  0.0000  0.0000  0.0000
 1992 224   118   114    346  1.8360  0.0105  0.9837  0.4569  0.0714 0.08717  8.366 18.298 12.729  8.982  0.0000  0.0000  0.0000
 1992 225   119   115    360  2.3238  0.0150  1.3886  0.5111  0.0968 0.12687  8.453 18.468 13.973 10.631  0.0000  0.0000  0.0000
 1992 226   120   116    376  2.5508  0.0162  1.5607  0.5439  0.1019 0.14670  8.541 18.657 15.022  9.834  0.0000  0.0000  0.0000
 1992 227   121   117    392  2.6197  0.0181  1.6039  0.5533  0.1097 0.15507  8.630 18.848 15.394 10.132  0.0000  0.0000  0.0000
 1992 228   122   118    406  2.3438  0.0243  1.3641  0.5117  0.1279 0.13640  8.680 18.975 16.574 11.958  0.0000  0.0000  0.0000
 1992 229   123   119    436  4.5733  0.0000  2.6123  0.6908  0.2476 0.64671  9.483 21.083 19.584 14.963  0.0000  0.0000  0.0000
 1992 230   124   120    464  4.3815  0.0000  2.6770  0.7189  0.2759 0.36645  9.778 21.718 20.594 15.968  0.0000  0.0000  0.0000
 1992 231   125   121    492  4.2655  0.0154  2.6353  0.7298  0.2400 0.32508  9.959 22.077 18.570 14.591  0.0000  0.0000  0.0000
 1992 232   126   122    516  3.7542  0.0449  2.3829  0.7112  0.2036 0.27829 10.041 22.217 17.359 13.342  0.0000  0.0000  0.0000
 1992 233   127   123    538  3.5225  0.0405  2.1698  0.6933  0.1852 0.25902 10.116 22.355 16.882 12.345  0.0000  0.0000  0.0000
 1992 234   128   124    577  5.9046  0.0000  3.1721  0.8358  0.3529 1.03374 11.058 24.791 20.515 15.836  0.0000  0.0000  0.0000
 1992 235   129   125    595  3.2859  0.0915  1.8988  0.6572  0.2900 0.22815 11.063 24.724 18.926 16.791  0.0000  0.0000  0.0000
 1992 236   130   126    627  4.9360  0.0142  2.9712  0.8409  0.2740 0.43024 11.247 25.083 17.471 14.127  0.0000  0.0000  0.0000
 1992 237   131   127    662  5.2986  0.0000  3.0498  0.8487  0.2868 0.64330 11.626 25.977 18.389 13.593  0.0000  0.0000  0.0000
 1992 238   132   128    696  5.2558  0.0000  3.0503  0.8506  0.2813 0.60636 11.931 26.671 18.319 13.000  0.0000  0.0000  0.0000
 1992 239   133   129    729  5.0770  0.0000  3.0041  0.8470  0.2737 0.50182 12.115 27.042 17.673 12.798  0.0000  0.0000  0.0000
 1992 240   134   130    775  6.9199  0.0000  3.6224  0.9419  0.4443 1.30375 12.923 29.045 21.855 15.245  0.0000  0.0000  0.0000
 1992 241   135   131    799  4.1774  0.1166  2.4336  0.8102  0.3154 0.36538 12.923 28.958 17.432 14.869  0.0000  0.0000  0.0000
 1992 242   136   132    841  6.6105  0.0000  3.7038  0.9882  0.5181 0.84054 13.289 29.720 21.933 17.287  0.0000  0.0000  0.0000
 1992 243   137   133    855  2.9707  0.1797  1.5523  0.6331  0.3980 0.20975 13.190 29.493 19.855 17.877  0.0000  0.0000  0.0000
 1992 244   138   134    863  1.8566  0.0762  0.7048  0.5417  0.1811 0.07692 13.089 29.350 13.033 11.574  0.0000  0.0000  0.0000
 1992 245   139   135    871  1.7285  0.0568  0.6408  0.5053  0.1580 0.07778 13.007 29.243 12.763 10.399  0.0000  0.0000  0.0000
 1992 246   140   136    878  1.6208  0.0759  0.5816  0.4840  0.1802 0.05663 12.911 29.102 13.677 11.519  0.0000  0.0000  0.0000
 1992 247   141   137    904  4.1173  0.0851  2.4524  0.7518  0.2541 0.43782 12.976 29.165 15.578 12.059  0.0000  0.0000  0.0000
 1992 248   142   138    938  5.2663  0.0000  2.9428  0.8038  0.3034 0.74122 13.276 29.807 16.644 12.459  0.0000  0.0000  0.0000
 1992 249   143   139    978  6.0246  0.0000  3.1929  0.8420  0.3703 1.07774 13.766 30.935 18.498 13.228  0.0000  0.0000  0.0000
 1992 250   144   140   1014  5.6217  0.0000  3.1205  0.8453  0.3582 0.79219 14.058 31.528 17.000 13.472  0.0000  0.0000  0.0000
 1992 251   145   141   1052  6.4575  0.1526  3.8748  0.9556  0.4517 0.81489 14.222 31.702 18.665 14.854  0.0000  0.0000  0.0000
 1992 252   146   142   1062  3.0559  0.2418  1.7080  0.5953  0.4221 0.24326 14.167 31.502 18.951 16.676  0.0000  0.0000  0.0000
 1992 253   147   143   1090  5.0819  0.2492  3.0440  0.8662  0.4881 0.54983 14.218 31.440 18.838 16.526  6.3173 16.7249 35.2921
 1992 254   148   144   1124  6.0051  0.2796  3.6940  0.9658  0.5647 0.69846 14.284 31.413 20.110 17.130  6.3006 16.9513 35.1702
 1992 255   149   145   1145  4.6080  0.3177  2.6194  0.8526  0.5585 0.41611 14.291 31.268 20.100 17.889  6.2796 17.2615 34.9911
 1992 256   150   146   1181  6.2884  0.2779  3.8622  1.0241  0.5065 0.76149 14.385 31.327 18.083 15.624  6.3090 16.8863 35.1825
 1992 257   151   147   1189  3.2419  0.2215  1.9301  0.6079  0.3034 0.29350 14.415 31.255 15.332 12.555  6.4154 15.7574 35.6465
 1992 258   152   148   1216  5.4726  0.2403  3.3036  0.9181  0.3894 0.69723 14.506 31.326 17.702 12.813  6.5195 14.6373 36.1157
 1992 259   153   149   1254  7.0215  0.0303  3.9299  1.0265  0.5271 0.95641 14.826 31.893 19.187 14.857  6.5111 14.6468 36.1588
 1992 260   154   150   1277  6.1632  0.4039  3.7170  1.0314  0.6423 0.71367 14.858 31.821 20.889 17.366  6.4266 15.6131 35.7208
 1992 261   155   151   1319  8.2443  0.0000  4.2784  1.1601  0.9823 1.10414 15.280 32.590 24.740 20.685  6.3414 17.0879 34.7784
 1992 262   156   152   1344  5.0513  0.3291  2.9286  0.9964  0.3793 0.50038 15.306 32.514 15.361 12.785  6.4396 15.9191 35.3333
 1992 263   157   153   1374  5.6130  0.3271  3.2699  1.0335  0.3885 0.68712 15.354 32.508 16.917 11.937  6.5154 15.0771 35.7014
 1992 264   158   154   1420  7.9295  0.4436  4.7500  1.2712  0.6786 1.08874 15.419 32.552 22.283 15.322  6.5038 15.1061 35.7451
 1992 265   159   155   1476 10.0169  0.0593  5.2900  1.4020  1.1108 1.38953 15.805 33.275 26.680 19.680  6.4500 15.8006 35.3871
 1992 266   160   156   1478  1.4013  0.3612  0.8054  0.4397  0.2473 0.00000 15.648 32.967 12.049 10.669  6.5246 15.0287 35.6923
 1992 267   161   157   1489  4.3418  0.4236  2.5121  0.9393  0.3919 0.39472 15.578 32.767 16.587 12.306  6.5605 14.6118 35.8851
 1992 268   162   158   1492  1.6707  0.4202  0.9748  0.5164  0.2931 0.00000 15.398 32.408 12.769 11.849  6.6092 14.0705 36.1218
 1992 269   163   159   1501  2.2678  0.3326  1.2115  0.6179  0.2018 0.18119 15.274 32.184 11.180  8.347  6.6712 13.4916 36.3132
 1992 270   164   160   1507  2.1111  0.3494  1.0511  0.6367  0.1929 0.13464 15.117 31.915 11.998  7.250  6.7414 12.8549 36.5113
 1992 271   165   161   1531  5.3615  0.4593  2.1654  1.6226  0.4251 0.31245 14.843 31.540 17.462 11.969  6.7597 12.6257 36.6260
 1992 272   166   162   1561  6.3820  0.5009  3.5465  1.3516  0.5137 0.70918 14.765 31.390 18.775 13.067  6.7593 12.5753 36.6789
 1992 273   167   163   1601  7.3877  0.5584  4.4941  1.2860  0.6310 0.95957 14.786 31.342 20.422 14.358  6.7404 12.7087 36.6637
 1992 274   168   164   1648  9.4099  0.7054  5.7026  1.5675  0.9710 1.17517 14.790 31.267 23.628 17.986  6.6840 13.2965 36.4284
 1992 275   169   165   1664  6.5935  0.7561  3.8588  1.2705  0.9036 0.55971 14.700 30.942 23.918 18.452  6.6321 13.8565 36.1929
 1992 276   170   166   1678  5.3012  0.7282  3.3821  1.0327  0.7323 0.34988 14.592 30.565 20.387 17.263  6.5893 14.2736 36.0432
 1992 277   171   167   1696  6.1725  0.6836  3.7439  1.2370  0.6633 0.50204 14.514 30.281 19.081 15.707  6.5691 14.4287 36.0146
 1992 278   172   168   1726  7.9844  0.7871  4.9204  1.3891  0.9648 0.83192 14.448 30.056 23.302 18.399  6.5287 14.8736 35.8218
 1992 279   173   169   1715  2.6982  0.6900  1.8820  0.6761  0.5118 0.00000 14.236 29.540 17.184 14.910  6.5245 14.8593 35.8624
 1992 280   174   170   1719  4.4137  0.5728  2.8685  0.8826  0.3871 0.42864 14.178 29.318 14.556 11.534  6.5651 14.4313 36.0369
 1992 281   175   171   1733  3.3145  0.5407  2.0401  0.7864  0.3051 0.31094 14.035 29.027 13.805  9.750  6.6187 13.9110 36.2220
 1992 282   176   172   1756  4.7797  0.5945  3.1599  0.8593  0.4118 0.60757 13.978 28.860 16.553 11.003  6.6549 13.5392 36.3679
 1992 283   177   173   1770  6.2410  0.6747  4.0473  1.0887  0.5815 0.75434 13.933 28.713 18.749 13.625  6.6558 13.4871 36.4143
 1992 284   178   174   1799  8.2039  0.7709  5.3123  1.3071  0.8465 1.05762 13.902 28.630 22.497 16.090  6.6267 13.7525 36.3305
 1992 285   179   175   1822  7.3454  0.8605  4.6647  1.2539  0.9772 0.77661 13.811 28.367 24.408 17.998  6.5834 14.2194 36.1342
 1992 286   180   176   1857  8.1022  0.8795  5.2592  1.3485  0.9723 0.90036 13.730 28.151 22.207 18.075  6.5428 14.6600 35.9472
 1992 287   181   177   1881  8.2810  0.8636  5.3838  1.3350  0.9356 1.01974 13.666 28.003 22.982 16.925  6.5196 14.8829 35.8694
 1992 288   182   178   1907  9.3430  0.7722  5.5804  1.3879  1.3194 1.11135 13.689 28.028 26.723 20.273  6.4848 15.3674 35.6026
 1992 289   183   179   1900  4.0976  1.1128  2.8272  0.7429  1.3255 0.07651 13.414 27.287 29.054 23.351  6.4667 15.9085 35.1747
 1992 290   184   180   1905  3.8145  0.9362  2.3140  1.0720  0.7989 0.00000 13.127 26.602 19.769 18.057  6.4415 16.1381 35.1026
 1992 291   185   181   1905  6.5784  0.8720  3.8458  1.5538  0.8002 0.43205 12.942 26.181 19.804 16.522  6.4312 16.1834 35.1215
 1992 292   186   182   1924  6.0011  0.7971  3.7522  1.2959  0.6449 0.52916 12.819 25.873 19.128 14.241  6.4416 16.0135 35.2265
 1992 293   187   183   1928  3.0647  0.8428  1.9381  0.9383  0.6120 0.00000 12.535 25.234 18.504 15.435  6.4404 15.9650 35.2823
 1992 294   188   184   1939  5.2371  0.7981  3.4973  1.0963  0.6084 0.43673 12.402 24.886 17.353 14.391  6.4484 15.8304 35.3671
 1992 295   189   185   1960  5.4830  0.7717  3.3374  1.2004  0.5948 0.51316 12.261 24.590 18.935 13.295  6.4632 15.6430 35.4623
 1992 296   190   186   1978  6.7928  0.8553  4.4682  1.1382  0.8340 0.78121 12.168 24.395 21.979 15.945  6.4575 15.6667 35.4736
 1992 297   191   187   2001  8.2919  0.9757  5.0998  1.4900  1.2089 0.84702 12.053 24.152 25.026 19.562  6.4362 15.9408 35.3332
 1992 298   192   188   2009  8.0676  1.0626  5.1625  1.2276  1.5531 0.89618 11.919 23.875 28.485 22.663  6.4227 16.2902 35.0680
 1992 299   193   189   1891  4.2008  1.0482  2.7672  0.9305  1.2066 0.02485 11.475 22.623 25.101 21.957  6.4056 16.6331 34.8320
 1992 300   194   190   1809  6.4681  0.0000  3.2663  0.9616  1.3169 0.58159 11.711 22.797 25.914 22.305  6.3922 16.9377 34.6111
 1992 301   195   191   1750  5.1263  0.0000  2.4589  0.8339  1.2744 0.29528 11.907 22.841 27.917 22.842  6.3830 17.2139 34.3925
 1992 302   196   192   1685  0.8721  0.5663  0.9216  0.3427  0.2969 0.00000 11.586 22.050 13.999 10.817  6.4157 16.8442 34.5576
 1992 303   197   193   1642  1.9784  0.5670  1.4226  0.6066  0.4371 0.00000 11.248 21.268 19.277 12.841  6.4328 16.6103 34.6845
 1992 304   198   194   1597  1.6331  0.5371  1.2217  0.5038  0.4559 0.00000 10.905 20.521 19.563 14.056  6.4413 16.4563 34.7853
 1992 305   199   195   1559  1.4455  0.5154  1.0670  0.4366  0.5043 0.00000 10.553 19.797 21.338 15.258  6.4416 16.3906 34.8492
 1992 306   200   196   1534  1.3910  0.5213  0.9484  0.3413  0.6382 0.00000 10.174 19.058 24.487 18.012  6.4321 16.4658 34.8338
 1992 307   201   197   1501  1.1249  0.5341  0.6713  0.1926  0.8185 0.00000  9.757 18.293 27.724 21.571  6.4253 16.5777 34.7644
 1992 308   202   198   1483  0.5052  0.4010  0.4592  0.1317  0.3895 0.00000  9.428 17.691 18.307 14.586  6.4274 16.5316 34.7973
 1992 309   203   199   1459  0.2366  0.3223  0.3540  0.1015  0.2238 0.00000  9.158 17.195 13.012 10.293  6.4409 16.3859 34.8582
 1992 310   204   200   1447  0.1850  0.3096  0.3041  0.0872  0.2187 0.00000  8.890 16.716 14.445  9.542  6.4547 16.2439 34.9145
