*PLANT C OUTPUT FILE

*DSSAT Cropping System Model Ver. 4.6.1.000 -release      OCT 17, 2016; 11:33:03
                                                                                
*RUN   1        : UYSB                      CRGRO046 UYSB0875    1              
 MODEL          : CRGRO046 - Soybean                                            
 EXPERIMENT     : UYSB0875 SN late to create DSS                                
 DATA PATH      :                                                               
 TREATMENT  1   : UYSB                      CRGRO046                            
  
@YEAR DOY   DAS   DAP   TWAD    PHAD    CMAD    CGRD    GRAD    MRAD    CHAD   CL%D   CS%D   TGNN   TGAV    GN%D    GL%D    GC%D
 1990 291     4     0      0  0.0000  0.0000  0.0000  0.0000  0.0000 0.00000  0.000  0.000 22.867 19.265  0.0000  0.0000  0.0000
 1990 292     5     1      0  0.0000  0.0000  0.0000  0.0000  0.0000 0.00000  0.000  0.000 22.684 19.581  0.0000  0.0000  0.0000
 1990 293     6     2      0  0.0000  0.0000  0.0000  0.0000  0.0000 0.00000  0.000  0.000 22.494 19.640  0.0000  0.0000  0.0000
 1990 294     7     3      0  0.0000  0.0000  0.0000  0.0000  0.0000 0.00000  0.000  0.000 22.528 19.031  0.0000  0.0000  0.0000
 1990 295     8     4      0  0.0000  0.0000  0.0000  0.0000  0.0000 0.00000  0.000  0.000 23.049 18.872  0.0000  0.0000  0.0000
 1990 296     9     5      0  0.0000  0.0000  0.0000  0.0000  0.0000 0.00000  0.000  0.000 23.736 19.272  0.0000  0.0000  0.0000
 1990 297    10     6      0  0.0000  0.0000  0.0000  0.0000  0.0000 0.00000  0.000  0.000 20.951 17.952  0.0000  0.0000  0.0000
 1990 298    11     7      8  0.0000  0.0004  0.0003  0.0001  0.0000 0.00000  3.951  7.898 22.789 18.181  0.0000  0.0000  0.0000
 1990 299    12     8      9  0.1757  0.0006  0.1100  0.0375  0.0132 0.00000  3.898  7.800 25.505 21.647  0.0000  0.0000  0.0000
 1990 300    13     9     10  0.1751  0.0007  0.1092  0.0366  0.0148 0.00000  3.844  7.707 26.637 22.599  0.0000  0.0000  0.0000
 1990 301    14    10     10  0.1126  0.0007  0.0704  0.0234  0.0101 0.00000  3.793  7.618 23.023 21.128  0.0000  0.0000  0.0000
 1990 302    15    11     11  0.1588  0.0008  0.0984  0.0323  0.0159 0.00000  3.738  7.530 26.377 23.874  0.0000  0.0000  0.0000
 1990 303    16    12     13  0.2827  0.0009  0.2092  0.0447  0.0236 0.00000  3.720  7.504 27.211 23.314  0.0000  0.0000  0.0000
 1990 304    17    13     15  0.2877  0.0008  0.1801  0.0596  0.0181 0.00000  3.684  7.495 22.125 19.479  0.0000  0.0000  0.0000
 1990 305    18    14     17  0.3048  0.0009  0.1964  0.0596  0.0211 0.00000  3.649  7.476 23.028 20.382  0.0000  0.0000  0.0000
 1990 306    19    15     19  0.3077  0.0011  0.1976  0.0591  0.0231 0.00000  3.615  7.448 25.166 20.624  0.0000  0.0000  0.0000
 1990 307    20    16     20  0.2307  0.0015  0.1313  0.0525  0.0263 0.00000  3.597  7.334 27.049 24.438  0.0000  0.0000  0.0000
 1990 308    21    17     22  0.3247  0.0009  0.2144  0.0711  0.0174 0.00000  3.642  7.320 20.564 16.485  0.0000  0.0000  0.0000
 1990 309    22    18     24  0.3054  0.0006  0.1865  0.0743  0.0119 0.00000  3.658  7.326 17.197 12.688  0.0000  0.0000  0.0000
 1990 310    23    19     26  0.3217  0.0009  0.2001  0.0733  0.0167 0.00000  3.657  7.318 19.573 15.494  0.0000  0.0000  0.0000
 1990 311    24    20     29  0.5154  0.0013  0.3257  0.1100  0.0308 0.00000  3.650  7.336 22.077 18.498  0.0000  0.0000  0.0000
 1990 312    25    21     30  0.2016  0.0010  0.1230  0.0466  0.0130 0.00000  3.640  7.300 17.393 14.851  0.0000  0.0000  0.0000
 1990 313    26    22     33  0.4802  0.0016  0.2998  0.1035  0.0311 0.00000  3.630  7.296 21.281 18.704  0.0000  0.0000  0.0000
 1990 314    27    23     37  0.6895  0.0018  0.4300  0.1509  0.0438 0.00000  3.630  7.315 23.234 19.260  0.0000  0.0000  0.0000
 1990 315    28    24     42  0.8698  0.0024  0.5414  0.1856  0.0629 0.00000  3.622  7.337 25.354 21.164  0.0000  0.0000  0.0000
 1990 316    29    25     46  0.6236  0.0024  0.3906  0.1319  0.0449 0.00000  3.603  7.325 23.140 19.416  0.0000  0.0000  0.0000
 1990 317    30    26     53  1.1583  0.0037  0.6962  0.2370  0.1262 0.00000  3.584  7.330 32.604 26.731  0.0000  0.0000  0.0000
 1990 318    31    27     58  0.9780  0.0045  0.5691  0.2164  0.1159 0.00000  3.566  7.275 31.297 26.927  0.0000  0.0000  0.0000
 1990 319    32    28     62  0.7027  0.0035  0.4304  0.1575  0.0579 0.00000  3.547  7.243 22.378 20.265  0.0000  0.0000  0.0000
 1990 320    33    29     69  1.1060  0.0029  0.7137  0.2397  0.0608 0.00000  3.577  7.276 20.724 17.178  0.0000  0.0000  0.0000
 1990 321    34    30     80  1.7777  0.0034  1.1219  0.3888  0.0977 0.00000  3.586  7.351 23.771 17.753  0.0000  0.0000  0.0000
 1990 322    35    31     93  2.0639  0.0060  1.2785  0.4289  0.1711 0.00000  3.574  7.371 27.874 23.145  0.0000  0.0000  0.0000
 1990 323    36    32    105  2.2720  0.0085  1.3411  0.4733  0.2595 0.00000  3.563  7.340 31.799 27.643  0.0000  0.0000  0.0000
 1990 324    37    33    115  1.6137  0.0090  0.9722  0.3338  0.1706 0.00000  3.531  7.287 27.050 24.578  0.0000  0.0000  0.0000
 1990 325    38    34    133  3.0894  0.0093  1.9137  0.6536  0.2622 0.00000  3.522  7.322 27.340 23.793  0.0000  0.0000  0.0000
 1990 326    39    35    153  3.2928  0.0097  1.9909  0.7763  0.2467 0.00000  3.555  7.314 26.259 21.708  0.0000  0.0000  0.0000
 1990 327    40    36    176  3.9649  0.0108  2.4054  0.9335  0.2853 0.00000  3.583  7.316 26.284 21.268  0.0000  0.0000  0.0000
 1990 328    41    37    202  4.3089  0.0139  2.5901  1.0071  0.3510 0.00000  3.594  7.301 27.075 22.810  0.0000  0.0000  0.0000
 1990 329    42    38    227  4.4231  0.0168  2.6379  1.0269  0.3969 0.00000  3.591  7.270 27.701 23.759  0.0000  0.0000  0.0000
 1990 330    43    39    259  5.5334  0.0153  3.4381  1.2623  0.3675 0.00562  3.650  7.334 23.662 20.401  0.0000  0.0000  0.0000
 1990 331    44    40    292  5.3166  0.0115  3.2340  1.2790  0.2436 0.01649  3.704  7.495 19.679 15.665  0.0000  0.0000  0.0000
 1990 332    45    41    333  6.8200  0.0150  4.1775  1.5903  0.3519 0.03765  3.797  7.769 22.485 16.894  0.0000  0.0000  0.0000
 1990 333    46    42    386  8.7707  0.0229  5.2786  2.0149  0.5591 0.07353  3.927  8.166 25.083 19.743  0.0000  0.0000  0.0000
 1990 334    47    43    424  6.5728  0.0302  3.8594  1.5186  0.5148 0.07462  4.012  8.449 25.192 20.927  0.0000  0.0000  0.0000
 1990 335    48    44    481  9.5986  0.0333  5.6610  2.2520  0.6713 0.13979  4.175  8.951 24.821 20.628  0.0000  0.0000  0.0000
 1990 336    49    45    510  5.1227  0.0345  2.9410  1.2103  0.4000 0.08663  4.237  9.167 22.233 18.864  0.0000  0.0000  0.0000
 1990 337    50    46    576 10.7820  0.0322  6.3996  2.5654  0.5706 0.21530  4.442  9.774 21.353 17.230  0.0000  0.0000  0.0000
 1990 338    51    47    657 13.6073  0.0464  7.8970  3.2050  0.8820 0.30446  4.669 10.446 25.575 19.374  0.0000  0.0000  0.0000
 1990 339    52    48    717 11.0549  0.0827  5.9559  2.4896  1.3033 0.26955  4.792 10.845 30.689 26.388  0.0000  0.0000  0.0000
 1990 340    53    49    788 12.0758  0.0748  7.5875  2.4190  0.9867 0.38360  5.030 11.438 24.514 21.611  0.0000  0.0000  0.0000
 1990 341    54    50    898 17.0123  0.0000  8.2217  2.0293  1.1955 4.04945  8.275 20.491 23.968 20.670  0.0000  0.0000  0.0000
 1990 342    55    51    994 16.6198  0.1293  8.6561  4.0470  1.0479 0.53541  8.060 20.056 23.261 18.601  0.0000  0.0000  0.0000
 1990 343    56    52   1012  6.7931  0.1218  1.4990  2.3431  0.5485 0.09921  7.908 19.811 18.965 16.994  0.0000  0.0000  0.0000
 1990 344    57    53   1036  7.2612  0.1315  4.3327  1.4701  0.6091 0.30641  8.035 19.774 19.019 17.729  0.0000  0.0000  0.0000
 1990 345    58    54   1141 18.0592  0.1633  9.9948  3.9740  1.2816 0.77553  8.002 19.660 23.626 19.934  0.0000  0.0000  0.0000
 1990 346    59    55   1197 10.9691  0.1308  5.5240  2.6216  0.7209 0.44466  7.991 19.598 20.467 16.345  0.0000  0.0000  0.0000
 1990 347    60    56   1282 16.1958  0.1800  8.4660  3.6677  1.1825 0.72258  8.030 19.610 22.707 19.231  0.0000  0.0000  0.0000
 1990 348    61    57   1375 17.1326  0.1462  9.1303  3.9583  0.9623 0.81333  8.102 19.717 20.355 16.198  0.0000  0.0000  0.0000
 1990 349    62    58   1509 24.0207  0.2114 12.9884  5.5088  1.6739 1.22854  8.211 19.911 25.117 19.241  0.0000  0.0000  0.0000
 1990 350    63    59   1640 24.5014  0.2847 12.7117  5.6366  2.1986 1.27016  8.303 20.073 28.004 22.092  0.0000  0.0000  0.0000
 1990 351    64    60   1720 17.1717  0.3569  8.3291  3.9810  2.0915 0.85392  8.322 20.067 28.491 24.155  0.0000  0.0000  0.0000
 1990 352    65    61   1874 25.7440  0.3256 15.9776  4.5911  2.1793 1.77487  8.576 20.490 24.496 21.522  0.0000  0.0000  0.0000
 1990 353    66    62   2024 27.8211  0.3292 13.5039  6.6522  2.1288 1.53299  8.611 20.691 24.111 20.098  0.0000  0.0000  0.0000
 1990 354    67    63   2179 29.3584  0.3759 14.7150  6.6434  2.4008 1.74156  8.727 20.966 25.358 20.665  0.0000  0.0000  0.0000
 1990 355    68    64   2322 27.4568  0.4725 14.5474  5.8305  2.8541 1.78838  8.886 21.234 27.952 22.972  0.0000  0.0000  0.0000
 1990 356    69    65   2385 15.3087  0.5029  8.9005  2.7291  2.0323 0.98836  8.982 21.288 24.809 22.409  0.0000  0.0000  0.0000
 1990 357    70    66   2520 24.5252  0.5444 13.8280  4.4903  2.7879 1.70908  9.109 21.512 26.991 23.193  0.0000  0.0000  0.0000
 1990 358    71    67   2616 18.4692  0.2300 10.6470  3.0509  1.9170 1.28337  9.274 21.833 23.216 20.028  0.0000  0.0000  0.0000
 1990 359    72    68   2796 29.6986  0.4670 17.4334  5.1598  2.3946 2.34276  9.471 22.256 23.971 19.313  0.0000  0.0000  0.0000
 1990 360    73    69   2982 32.6643  0.6516 18.3029  5.7200  3.6699 2.56531  9.652 22.629 29.171 23.438  0.0000  0.0000  0.0000
 1990 361    74    70   3172 33.1781  0.7654 18.8923  5.5222  4.1639 2.78237  9.838 23.017 29.703 24.866  0.0000  0.0000  0.0000
 1990 362    75    71   3327 25.9570  0.4964 15.1559  5.0059  1.9612 2.02005  9.969 23.292 19.974 17.215  0.0000  0.0000  0.0000
 1990 363    76    72   3486 25.8258  0.4873 15.4121  4.7710  1.9517 2.15110 10.106 23.587 21.448 16.467  0.0000  0.0000  0.0000
 1990 364    77    73   3688 33.3299  0.0000 17.8399  5.3924  2.9967 3.85280 10.590 24.744 25.093 19.431  0.0000  0.0000  0.0000
 1990 365    78    74   3887 34.5023  0.0674 18.7525  5.5782  3.8843 3.11201 10.907 25.414 27.452 22.220  0.0000  0.0000  0.0000
 1991 001    79    75   4047 30.8607  1.0885 16.7623  5.4664  4.4518 2.44481 10.974 25.496 29.664 24.467  0.0000  0.0000  0.0000
 1991 002    80    76   4195 30.9343  1.2307 16.7927  5.4271  4.5664 2.46794 11.039 25.556 28.010 24.821  0.0000  0.0000  0.0000
 1991 003    81    77   4355 32.7146  1.2017 18.4501  5.7736  4.3314 2.52354 11.116 25.648 27.535 23.341  6.3125 20.4928 31.5543
 1991 004    82    78   4536 35.2477  1.1171 19.2237  6.6657  3.9312 2.79263 11.222 25.820 26.564 21.116  6.2245 20.1439 32.4531
 1991 005    83    79   4716 35.3244  1.1985 19.3920  6.6419  3.9969 2.75602 11.318 25.965 26.269 21.108  6.2086 20.0798 32.6164
 1991 006    84    80   4885 35.3703  1.2993 18.8715  6.6676  4.3663 2.79113 11.404 26.092 27.891 21.726  6.2103 20.1329 32.5525
 1991 007    85    81   5029 34.5659  1.5789 18.0409  6.3032  5.4765 2.55911 11.449 26.114 30.344 24.860  6.2919 20.2603 31.9151
 1991 008    86    82   5169 34.7018  1.7617 17.7107  6.2477  6.3959 2.34405 11.458 26.059 32.282 26.905  6.4028 20.3397 31.1425
 1991 009    87    83   5211 17.4423  0.8851  9.4023  3.2640  3.6656 0.21798 11.461 25.934 23.896 22.820  6.3615 20.3744 31.3661
 1991 010    88    84   5315 33.4322  1.8067 17.1952  6.6780  5.5909 1.59600 11.429 25.766 29.235 25.077  6.3894 20.4083 31.1578
 1991 011    89    85   5413 31.6606  1.6276 16.0369  6.8279  4.3805 1.32996 11.400 25.607 26.192 21.927  6.3428 20.3714 31.4864
 1991 012    90    86   5561 34.0157  1.4788 17.2883  7.5854  3.8664 1.57222 11.405 25.535 24.586 19.783  6.3010 20.1192 31.9995
 1991 013    91    87   5631 27.2017  1.5565 14.5829  5.9858  3.6977 0.57208 11.331 25.262 25.088 20.035  6.2760 19.9974 32.2776
 1991 014    92    88   5754 34.2193  1.6930 17.7692  7.4731  4.5166 1.13336 11.282 25.062 26.180 21.378  6.2602 20.0208 32.3528
 1991 015    93    89   5856 33.7854  1.8055 16.9694  7.3205  5.2852 1.08141 11.218 24.826 29.306 22.998  6.2649 20.1018 32.2425
 1991 016    94    90   5951 24.5441  1.4466 13.5138  5.8695  2.9516 0.00000 11.114 24.476 21.205 17.801  6.2597 19.7249 32.6522
 1991 017    95    91   6045 27.4024  1.2924 14.4655  6.3987  2.7574 0.87913 11.090 24.342 22.038 15.838  6.2749 19.2585 33.0234
 1991 018    96    92   6161 33.6778  1.6365 18.1506  7.4667  4.0924 0.99649 11.040 24.146 25.415 19.431  6.2618 19.2444 33.1192
 1991 019    97    93   6270 32.0757  1.7661 16.6303  7.3198  4.5725 0.60607 10.947 23.840 27.160 20.781  6.2512 19.3313 33.0986
 1991 020    98    94   6346 28.4063  1.8369 14.9637  6.3099  4.9637 0.00000 10.803 23.392 29.370 21.989  6.2480 19.4501 33.0000
 1991 021    99    95   6337 17.7295  1.8596 10.1767  3.7748  3.8477 0.00000 10.656 22.934 23.357 21.422  6.2417 19.5417 32.9478
 1991 022   100    96   6382 32.8751  1.8946 16.3497  7.7294  5.1144 0.06088 10.507 22.472 27.051 22.250  6.2413 19.6464 32.8457
 1991 023   101    97   6423 29.7954  1.9355 15.3742  6.6703  5.2575 0.00000 10.346 21.977 27.499 23.092  6.2481 19.7563 32.6929
 1991 024   102    98   6413 14.6891  1.7931  8.3878  3.0411  3.7185 0.00000 10.198 21.513 23.207 21.416  6.2419 19.8055 32.6829
 1991 025   103    99   6479 30.3216  1.7802 14.7707  7.6440  4.7052 0.00000 10.055 21.045 25.224 21.678  6.2380 19.8558 32.6566
 1991 026   104   100   6553 30.7062  1.6553 15.8728  7.6194  4.2672 0.00000  9.922 20.605 24.659 20.182  6.2311 19.8260 32.7294
 1991 027   105   101   6619 30.0120  1.5655 15.7776  7.6152  3.8945 0.00000  9.795 20.184 23.699 19.079  6.2265 19.7311 32.8535
 1991 028   106   102   6672 30.6168  1.6988 15.6387  7.5568  4.8009 0.00000  9.649 19.719 26.686 21.279  6.2234 19.7670 32.8369
 1991 029   107   103   6693 19.5486  1.6378 10.5829  4.8230  3.8925 0.00000  9.506 19.264 23.923 20.664  6.2190 19.7735 32.8580
 1991 030   108   104   6723 25.1585  1.5280 13.2130  6.5939  3.7375 0.00000  9.376 18.832 21.857 19.458  6.2150 19.7126 32.9436
 1991 031   109   105   6741 20.8263  1.5449 11.3175  5.2992  3.7947 0.00000  9.241 18.386 22.641 20.206  6.2112 19.7018 32.9779
 1991 032   110   106   6772 29.4354  1.5771 14.7420  7.4528  4.7605 0.00000  9.100 17.919 25.975 21.357  6.2101 19.7396 32.9472
 1991 033   111   107   6821 28.1866  1.5618 14.1306  7.1392  5.1053 0.00000  8.952 17.444 27.916 22.153  6.2122 19.7935 32.8800
 1991 034   112   108   6865 27.5529  1.6331 13.2526  6.8191  6.1405 0.00000  8.790 16.935 30.166 24.797  6.2323 19.8558 32.6922
 1991 035   113   109   6911 27.9258  1.5896 13.3892  7.0504  6.0942 0.00000  8.627 16.427 29.617 24.642  6.2490 19.9113 32.5323
 1991 036   114   110   6966 27.4132  1.5518 13.1056  7.0889  5.9281 0.00000  8.463 15.918 28.412 24.440  6.2627 19.9618 32.3962
 1991 037   115   111   7000 22.6442  1.2702 11.2583  5.6915  5.1462 0.06084  8.350 15.523 26.651 23.288  6.2802 19.9696 32.2791
 1991 038   116   112   7069 26.3521  1.1476 12.7759  6.9938  5.2001 0.07394  8.252 15.166 27.371 22.577  6.2946 19.9694 32.1894
 1991 039   117   113   7113 22.6830  1.2314 11.0655  5.6497  5.3544 0.05086  8.128 14.760 27.853 23.525  6.3070 19.9799 32.1015
 1991 040   118   114   7150 20.3510  1.2396  9.9194  4.7858  5.3746 0.04304  7.993 14.336 27.992 24.023  6.3186 19.9894 32.0192
 1991 041   119   115   7217 24.1229  1.0733 11.2951  6.1841  5.4898 0.07029  7.883 13.977 29.190 23.504  6.3319 19.9909 31.9347
 1991 042   120   116   7268 21.1591  1.1668  9.8812  5.1314  5.6923 0.05516  7.746 13.567 28.401 24.969  6.3472 19.9945 31.8355
 1991 043   121   117   7335 22.2241  0.9100 10.7171  5.9779  4.1959 0.08118  7.651 13.261 24.240 20.916  6.3531 19.9639 31.8294
 1991 044   122   118   7393 17.9511  0.7981  9.1912  5.1990  2.9253 0.06675  7.562 12.986 22.202 17.092  6.3608 19.8357 31.9093
 1991 045   123   119   7445 15.5809  0.7317  8.2078  4.7068  2.3741 0.06678  7.478 12.733 19.425 15.602  6.3727 19.6716 31.9988
 1991 046   124   120   7499 16.1797  0.7523  8.4203  4.9227  2.4989 0.05713  7.381 12.463 21.197 15.623  6.3824 19.5187 32.0913
 1991 047   125   121   7562 18.9787  0.7211  9.2710  5.5252  3.1233 0.07852  7.293 12.212 24.393 17.141  6.3898 19.4165 32.1469
 1991 048   126   122   7617 19.8705  0.8998  9.0300  5.1001  4.5559 0.06017  7.159 11.874 28.676 21.890  6.3925 19.4278 32.1189
 1991 049   127   123   7664 17.7574  0.9116  8.0322  4.5028  4.4127 0.05730  7.014 11.524 27.382 22.312  6.3959 19.4390 32.0866
 1991 050   128   124   7721 17.7832  0.6102  8.5433  3.1716  4.2029 0.13021  6.946 11.335 28.071 21.324  6.3129 19.6175 32.4268
 1991 051   129   125   7515 14.3710  1.0810  6.5142  2.5251  4.9133 0.00000  6.645 10.382 29.902 24.442  6.2713 19.7273 32.5768
 1991 052   130   126   7320  6.3911  0.9069  2.7963  0.8021  3.7971 0.00000  6.349  9.546 26.714 23.431  6.2718 19.7346 32.5667
 1991 053   131   127   7188  9.9314  0.7323  4.3946  1.9774  3.4412 0.00000  6.079  8.834 26.568 21.538  6.2659 19.7510 32.5870
 1991 054   132   128   7088  7.6140  0.5657  3.6220  1.5748  2.3154 0.00000  5.847  8.246 22.521 17.635  6.2535 19.7524 32.6634
 1991 055   133   129   6996  6.7519  0.5557  2.7289  1.1986  3.1463 0.00000  5.594  7.691 27.317 21.505  6.2530 19.7560 32.6625
 1991 056   134   130   6915  5.1580  0.5064  1.6323  0.4682  3.6224 0.00000  5.342  7.190 31.036 23.657  6.2535 19.7600 32.6557
 1991 057   135   131   6841  3.8254  0.4695  0.2026  0.0581  4.0436 0.00057  5.073  6.732 32.924 26.010  6.2537 19.7604 32.6540
 1991 058   136   132   6777  2.2190  0.4459  0.0000  0.0000  4.1008 0.00000  4.801  6.305 32.260 27.307  6.2537 19.7604 32.6540
 1991 059   137   133   6726  1.3210  0.3789  0.0000  0.0000  2.8164 0.00000  4.559  5.939 24.351 22.855  6.2537 19.7604 32.6540
 1991 060   138   134   6682  1.3347  0.3594  0.0000  0.0000  3.0717 0.00000  4.322  5.598 26.790 24.013  6.2537 19.7604 32.6540
 1991 061   139   135   6646  1.0167  0.3205  0.0000  0.0000  2.7507 0.00000  4.105  5.295 25.967 22.692  6.2537 19.7604 32.6540
 1991 062   140   136   6615  1.2841  0.3040  0.0000  0.0000  3.2708 0.00000  3.894  5.012 30.506 24.598  6.2537 19.7604 32.6540

*DSSAT Cropping System Model Ver. 4.6.1.000 -release      OCT 17, 2016; 11:33:03
                                                                                
*RUN   2        : UYSB                      CRGRO046 UYSB0875    1              
 MODEL          : CRGRO046 - Soybean                                            
 EXPERIMENT     : UYSB0875 SN late to create DSS                                
 DATA PATH      :                                                               
 TREATMENT  1   : UYSB                      CRGRO046                            
  
@YEAR DOY   DAS   DAP   TWAD    PHAD    CMAD    CGRD    GRAD    MRAD    CHAD   CL%D   CS%D   TGNN   TGAV    GN%D    GL%D    GC%D
 1991 291     4     0      0  0.0000  0.0000  0.0000  0.0000  0.0000 0.00000  0.000  0.000 19.512 14.840  0.0000  0.0000  0.0000
 1991 292     5     1      0  0.0000  0.0000  0.0000  0.0000  0.0000 0.00000  0.000  0.000 22.543 17.692  0.0000  0.0000  0.0000
 1991 293     6     2      0  0.0000  0.0000  0.0000  0.0000  0.0000 0.00000  0.000  0.000 23.031 18.607  0.0000  0.0000  0.0000
 1991 294     7     3      0  0.0000  0.0000  0.0000  0.0000  0.0000 0.00000  0.000  0.000 27.287 21.791  0.0000  0.0000  0.0000
 1991 295     8     4      0  0.0000  0.0000  0.0000  0.0000  0.0000 0.00000  0.000  0.000 28.388 24.783  0.0000  0.0000  0.0000
 1991 296     9     5      0  0.0000  0.0000  0.0000  0.0000  0.0000 0.00000  0.000  0.000 18.131 15.810  0.0000  0.0000  0.0000
 1991 297    10     6      0  0.0000  0.0000  0.0000  0.0000  0.0000 0.00000  0.000  0.000 16.330 13.758  0.0000  0.0000  0.0000
 1991 298    11     7      8  0.0000  0.0004  0.0003  0.0001  0.0000 0.00000  3.950  7.896 20.426 18.318  0.0000  0.0000  0.0000
 1991 299    12     8      9  0.1671  0.0005  0.1057  0.0362  0.0115 0.00000  3.901  7.807 23.630 20.558  0.0000  0.0000  0.0000
 1991 300    13     9      9  0.1151  0.0005  0.0727  0.0249  0.0082 0.00000  3.858  7.728 22.034 18.961  0.0000  0.0000  0.0000
 1991 301    14    10     10  0.0782  0.0005  0.0487  0.0175  0.0059 0.00000  3.821  7.656 19.337 17.479  0.0000  0.0000  0.0000
 1991 302    15    11     10  0.0698  0.0004  0.0432  0.0162  0.0049 0.00000  3.792  7.596 16.566 15.994  0.0000  0.0000  0.0000
 1991 303    16    12     10  0.0794  0.0004  0.0497  0.0179  0.0055 0.00000  3.763  7.541 17.504 16.289  0.0000  0.0000  0.0000
 1991 304    17    13     11  0.0984  0.0005  0.0622  0.0211  0.0072 0.00000  3.730  7.488 19.814 17.633  0.0000  0.0000  0.0000
 1991 305    18    14     12  0.1978  0.0006  0.1285  0.0408  0.0116 0.00000  3.703  7.479 21.054 17.979  0.0000  0.0000  0.0000
 1991 306    19    15     14  0.2481  0.0006  0.1622  0.0510  0.0132 0.00000  3.682  7.485 20.842 17.229  0.0000  0.0000  0.0000
 1991 307    20    16     15  0.2461  0.0007  0.1607  0.0496  0.0143 0.00000  3.658  7.476 21.361 17.783  0.0000  0.0000  0.0000
 1991 308    21    17     18  0.3303  0.0008  0.2161  0.0658  0.0196 0.00000  3.636  7.478 23.120 18.433  0.0000  0.0000  0.0000
 1991 309    22    18     19  0.3231  0.0010  0.1985  0.0749  0.0221 0.00000  3.639  7.432 24.083 19.538  0.0000  0.0000  0.0000
 1991 310    23    19     21  0.2540  0.0012  0.1539  0.0593  0.0204 0.00000  3.625  7.369 23.144 20.246  0.0000  0.0000  0.0000
 1991 311    24    20     23  0.3900  0.0011  0.2434  0.0901  0.0232 0.00000  3.629  7.357 21.505 18.248  0.0000  0.0000  0.0000
 1991 312    25    21     26  0.3823  0.0011  0.2399  0.0880  0.0209 0.00000  3.631  7.350 20.123 16.902  0.0000  0.0000  0.0000
 1991 313    26    22     29  0.5233  0.0011  0.3331  0.1162  0.0270 0.00000  3.636  7.376 21.820 16.558  0.0000  0.0000  0.0000
 1991 314    27    23     32  0.5161  0.0015  0.3270  0.1103  0.0330 0.00000  3.624  7.377 23.668 18.513  0.0000  0.0000  0.0000
 1991 315    28    24     34  0.3930  0.0011  0.2418  0.0972  0.0189 0.00000  3.635  7.359 17.748 14.561  0.0000  0.0000  0.0000
 1991 316    29    25     37  0.4671  0.0009  0.2916  0.1151  0.0184 0.00000  3.652  7.367 17.232 12.720  0.0000  0.0000  0.0000
 1991 317    30    26     40  0.4966  0.0013  0.3109  0.1177  0.0243 0.00000  3.654  7.366 19.236 14.724  0.0000  0.0000  0.0000
 1991 318    31    27     42  0.3204  0.0017  0.1951  0.0769  0.0218 0.00000  3.640  7.326 18.811 16.017  0.0000  0.0000  0.0000
 1991 319    32    28     45  0.5347  0.0021  0.3347  0.1199  0.0359 0.00000  3.621  7.314 21.058 18.121  0.0000  0.0000  0.0000
 1991 320    33    29     50  0.8178  0.0022  0.5200  0.1811  0.0472 0.00000  3.612  7.342 21.658 17.682  0.0000  0.0000  0.0000
 1991 321    34    30     56  0.9142  0.0024  0.5844  0.2013  0.0505 0.00000  3.604  7.370 21.378 17.187  0.0000  0.0000  0.0000
 1991 322    35    31     64  1.2478  0.0034  0.7797  0.2778  0.0856 0.00000  3.600  7.383 25.105 20.197  0.0000  0.0000  0.0000
 1991 323    36    32     71  1.2688  0.0032  0.7963  0.2954  0.0689 0.00000  3.608  7.394 20.265 17.578  0.0000  0.0000  0.0000
 1991 324    37    33     80  1.4711  0.0040  0.9276  0.3288  0.0899 0.00000  3.604  7.406 22.830 18.746  0.0000  0.0000  0.0000
 1991 325    38    34     92  1.9105  0.0052  1.1961  0.4182  0.1355 0.00000  3.597  7.418 26.388 20.619  0.0000  0.0000  0.0000
 1991 326    39    35    105  2.0980  0.0068  1.2865  0.4462  0.1934 0.00000  3.581  7.409 30.627 23.639  0.0000  0.0000  0.0000
 1991 327    40    36    117  2.1823  0.0090  1.2946  0.4615  0.2540 0.00000  3.559  7.367 32.915 26.931  0.0000  0.0000  0.0000
 1991 328    41    37    122  0.8848  0.0054  0.5434  0.2057  0.0642 0.00000  3.546  7.325 18.376 16.477  0.0000  0.0000  0.0000
 1991 329    42    38    126  0.9375  0.0056  0.5780  0.2158  0.0676 0.00000  3.533  7.288 18.173 16.524  0.0000  0.0000  0.0000
 1991 330    43    39    133  1.4749  0.0057  0.9514  0.3074  0.0874 0.00000  3.548  7.281 19.166 16.442  0.0000  0.0000  0.0000
 1991 331    44    40    148  2.4566  0.0067  1.5967  0.5020  0.1415 0.00000  3.566  7.313 22.367 17.528  0.0000  0.0000  0.0000
 1991 332    45    41    166  2.9722  0.0107  1.8141  0.6194  0.2439 0.00000  3.539  7.314 27.088 22.035  0.0000  0.0000  0.0000
 1991 333    46    42    180  2.6423  0.0125  1.6378  0.5712  0.2321 0.00000  3.570  7.260 24.707 22.341  0.0000  0.0000  0.0000
 1991 334    47    43    204  4.3572  0.0141  2.5091  1.0161  0.3569 0.00000  3.574  7.243 26.754 22.919  0.0000  0.0000  0.0000
 1991 335    48    44    232  4.6234  0.0145  2.7900  1.0455  0.3440 0.00000  3.585  7.238 26.019 21.287  0.0000  0.0000  0.0000
 1991 336    49    45    266  5.8506  0.0176  3.5191  1.3047  0.4735 0.00000  3.597  7.239 28.052 22.604  0.0000  0.0000  0.0000
 1991 337    50    46    293  4.7252  0.0212  2.8251  1.0631  0.4191 0.00000  3.584  7.202 26.222 22.816  0.0000  0.0000  0.0000
 1991 338    51    47    339  7.8302  0.0238  4.6765  1.7885  0.6889 0.00440  3.602  7.241 29.430 23.910  0.0000  0.0000  0.0000
 1991 339    52    48    372  6.0230  0.0274  3.6910  1.3250  0.5353 0.02460  3.666  7.361 26.092 22.866  0.0000  0.0000  0.0000
 1991 340    53    49    429 10.1214  0.0336  5.7303  2.3103  0.9765 0.07266  3.775  7.728 30.071 25.446  0.0000  0.0000  0.0000
 1991 341    54    50    478  8.4811  0.0380  4.9227  1.8927  0.7622 0.09205  3.880  8.076 26.621 23.467  0.0000  0.0000  0.0000
 1991 342    55    51    552 12.6287  0.0441  7.3283  2.7953  1.0908 0.18107  4.076  8.680 28.181 23.844  0.0000  0.0000  0.0000
 1991 343    56    52    587  6.5172  0.0454  3.9679  1.4030  0.5681 0.11931  4.177  8.958 22.279 20.881  0.0000  0.0000  0.0000
 1991 344    57    53    677 14.2487  0.0000  8.4555  2.4350  1.1597 0.96621  5.217 11.910 25.905 22.966  0.0000  0.0000  0.0000
 1991 345    58    54    748 13.7071  0.0811  6.3407  3.5410  1.1448 0.26749  5.196 12.090 26.226 22.534  0.0000  0.0000  0.0000
 1991 346    59    55    790  8.5616  0.0776  4.2452  2.1018  0.7240 0.20166  5.236 12.217 22.840 20.260  0.0000  0.0000  0.0000
 1991 347    60    56    905 19.4638  0.0927 11.8378  3.9887  1.4817 0.62768  5.559 12.896 26.628 21.862  0.0000  0.0000  0.0000
 1991 348    61    57    951  8.8697  0.0937  5.2765  1.8235  0.7385 0.30764  5.649 13.104 21.207 19.344  0.0000  0.0000  0.0000
 1991 349    62    58   1005  9.6963  0.1068  5.7493  1.9620  0.8551 0.36707  5.754 13.354 22.595 20.158  0.0000  0.0000  0.0000
 1991 350    63    59   1124 18.6083  0.1320 12.0022  3.3795  1.5399 0.83197  6.025 14.022 25.596 22.085  0.0000  0.0000  0.0000
 1991 351    64    60   1273 23.2866  0.1643 14.6686  4.2535  1.9894 1.11328  6.327 14.779 26.483 22.936  0.0000  0.0000  0.0000
 1991 352    65    61   1389 24.1262  0.2084  9.3746  6.2323  2.4234 0.77862  6.278 15.036 29.331 24.566  0.0000  0.0000  0.0000
 1991 353    66    62   1511 23.0527  0.2294 13.9542  4.1563  2.4070 1.20446  6.664 15.704 29.379 24.470  0.0000  0.0000  0.0000
 1991 354    67    63   1671 27.4468  0.2651 15.7576  5.2041  2.8006 1.44407  6.929 16.345 29.272 24.614  0.0000  0.0000  0.0000
 1991 355    68    64   1785 26.0972  0.3255  9.8345  6.5236  3.1371 0.94339  6.892 16.515 30.738 26.260  0.0000  0.0000  0.0000
 1991 356    69    65   1843 16.6378  0.3260  6.8885  3.9876  2.0418 0.62423  6.965 16.613 26.196 23.760  0.0000  0.0000  0.0000
 1991 357    70    66   1992 27.3602  0.3530 16.1630  4.6243  3.0133 1.77414  7.337 17.357 28.604 24.842  0.0000  0.0000  0.0000
 1991 358    71    67   2153 29.9272  0.4149 14.8500  6.3188  3.5044 1.64139  7.454 17.797 29.444 25.789  0.0000  0.0000  0.0000
 1991 359    72    68   2284 26.9454  0.3704 12.8783  6.1355  2.4551 1.37871  7.593 18.154 24.509 21.571  0.0000  0.0000  0.0000
 1991 360    73    69   2414 24.8156  0.3064 14.0040  5.1529  1.7967 1.57942  7.864 18.666 21.463 18.130  0.0000  0.0000  0.0000
 1991 361    74    70   2592 30.5257  0.3570 17.1621  6.1628  2.2686 2.06628  8.110 19.254 23.496 18.910  0.0000  0.0000  0.0000
 1991 362    75    71   2782 33.0333  0.4600 18.6092  6.4695  2.8617 2.28868  8.356 19.816 25.042 20.849  0.0000  0.0000  0.0000
 1991 363    76    72   2991 34.5565  0.5463 20.3791  6.2517  3.3905 2.62304  8.607 20.392 27.341 22.073  0.0000  0.0000  0.0000
 1991 364    77    73   3159 30.9631  0.6704 17.1428  5.7709  3.7663 2.13700  8.771 20.735 28.667 24.008  0.0000  0.0000  0.0000
 1991 365    78    74   3300 28.1678  0.8114 15.0637  5.0234  4.5535 1.82908  8.876 20.925 31.412 27.147  0.0000  0.0000  0.0000
 1992 001    79    75   3382 19.0386  0.7874 10.4160  3.5875  3.1437 0.81824  8.881 20.848 26.972 24.212  0.0000  0.0000  0.0000
 1992 002    80    76   3524 28.0319  0.7845 15.3751  5.2274  3.7224 1.72342  8.988 21.045 27.330 23.925  0.0000  0.0000  0.0000
 1992 003    81    77   3697 30.4676  0.0000 16.7740  5.5584  2.6004 2.07940  9.281 21.709 21.996 18.770  0.0000  0.0000  0.0000
 1992 004    82    78   3919 36.5173  0.0000 15.2302  4.8430  3.5678 8.75844 10.727 25.521 25.206 20.941  0.0000  0.0000  0.0000
 1992 005    83    79   4122 36.1170  0.6770 19.9813  6.4120  3.7897 2.77707 10.911 25.866 26.782 21.118  0.0000  0.0000  0.0000
 1992 006    84    80   4267 29.8144  1.0299 16.7936  5.5145  3.5723 1.97540 10.978 25.906 25.656 21.534  0.0000  0.0000  0.0000
 1992 007    85    81   4425 33.4698  1.1653 18.3211  6.2414  4.2988 2.26531 11.051 25.966 27.759 22.848  6.2755 20.4515 31.8267
 1992 008    86    82   4586 35.1752  1.4030 19.3810  6.3102  5.4190 2.22102 11.095 25.959 29.533 25.626  6.4410 20.4852 30.7587
 1992 009    87    83   4714 32.4430  1.4700 16.9345  6.3035  5.3050 1.52076 11.073 25.812 29.518 25.575  6.4769 20.4930 30.5265
 1992 010    88    84   4814 30.4261  1.5374 15.2528  6.2401  5.1838 1.06351 11.023 25.581 28.772 25.510  6.4883 20.4961 30.4521
 1992 011    89    85   4984 36.9228  0.2756 19.7500  6.8741  4.1279 2.24295 11.269 26.049 25.365 21.028  6.3773 20.3046 31.3371
 1992 012    90    86   5106 34.2902  1.3554 17.4832  7.5477  4.1635 1.33230 11.267 25.940 26.337 21.140  6.3186 20.2156 31.7930
 1992 013    91    87   5248 36.7315  1.4601 19.5674  7.8389  4.5550 1.39355 11.261 25.823 26.319 21.875  6.2893 20.2294 31.9623
 1992 014    92    88   5356 31.4659  1.5020 16.2569  7.1359  4.3143 0.49210 11.180 25.523 26.302 21.822  6.2702 20.2343 32.0770
 1992 015    93    89   5440 24.7971  1.0012 13.5396  6.0577  2.2059 0.09674 11.124 25.286 18.867 15.355  6.3034 19.2467 32.8569
 1992 016    94    90   5553 28.5353  1.0923 15.0647  6.7363  2.6589 0.63410 11.104 25.138 21.424 16.227  6.3115 18.7184 33.3350
 1992 017    95    91   5708 35.7905  1.4245 19.5011  7.6576  4.1110 1.27012 11.100 25.036 25.411 19.928  6.2871 18.8517 33.3541
 1992 018    96    92   5822 35.2017  1.6052 17.7250  7.9345  4.9162 0.83436 11.041 24.797 27.988 21.932  6.2764 19.0858 33.1864
 1992 019    97    93   5887 30.6853  1.7524 15.8615  6.8870  5.3079 0.00000 10.896 24.336 29.116 23.669  6.2867 19.3119 32.8965
 1992 020    98    94   5971 34.7802  1.8501 17.1278  7.6851  6.4837 0.30553 10.765 23.913 31.198 25.716  6.3231 19.4965 32.4839
 1992 021    99    95   6044 32.0942  1.8598 16.1808  7.3712  5.8968 0.00000 10.605 23.411 28.885 24.944  6.3435 19.6540 32.1990
 1992 022   100    96   6073 32.7959  1.7818 16.3175  7.6677  5.6013 0.00000 10.452 22.927 28.317 23.946  6.3467 19.7794 32.0539
 1992 023   101    97   6169 32.6259  1.6328 16.4006  8.0207  4.8186 0.00000 10.313 22.475 26.313 21.942  6.3277 19.8562 32.0959
 1992 024   102    98   6233 26.8768  1.6628 13.7967  6.4311  4.6732 0.00000 10.171 22.012 26.289 22.384  6.3163 19.9293 32.0941
 1992 025   103    99   6253 23.2263  1.7959 11.8096  5.3235  5.2002 0.00000 10.013 21.505 27.230 24.472  6.3286 20.0033 31.9430
 1992 026   104   100   6294 29.6966  1.7782 14.4983  7.0999  5.8271 0.00000  9.857 20.992 27.988 24.872  6.3433 20.0651 31.7895
 1992 027   105   101   6280 28.0802  1.6956 14.0781  6.7305  5.3813 0.00000  9.707 20.495 27.229 23.970  6.3462 20.1183 31.7182
 1992 028   106   102   6301 24.8333  1.7140 12.1926  5.8894  5.7522 0.00000  9.549 19.974 28.726 25.467  6.3655 20.1666 31.5488
 1992 029   107   103   6314 23.4910  1.6770 11.6418  5.5743  5.6265 0.00000  9.394 19.453 28.205 25.412  6.3811 20.2069 31.4111
 1992 030   108   104   6295 15.8145  1.5936  8.5092  3.3435  5.0931 0.01261  9.253 18.952 28.001 25.459  6.3975 20.2239 31.2915
 1992 031   109   105   6285 23.8741  1.6095 11.6224  5.7098  6.1344 0.00000  9.103 18.424 29.744 26.558  6.4237 20.2444 31.1073
 1992 032   110   106   6327 24.5017  1.3042 11.8434  5.9231  5.9661 0.06698  9.010 18.020 29.585 26.005  6.4590 20.2253 30.9058
 1992 033   111   107   6387 27.1283  1.4157 12.9775  6.4320  6.5220 0.03423  8.887 17.546 29.679 26.851  6.4861 20.2327 30.7293
 1992 034   112   108   6409 19.7304  1.2874 10.1830  4.5000  4.9722 0.03474  8.777 17.107 26.446 24.299  6.4889 20.2330 30.7113
 1992 035   113   109   6476 24.2705  1.1585 11.9515  5.8862  5.1949 0.05845  8.686 16.717 26.930 23.995  6.4940 20.2240 30.6882
 1992 036   114   110   6546 25.3526  1.1788 12.1602  6.3289  5.7245 0.05577  8.583 16.307 28.012 25.042  6.5047 20.2181 30.6278
 1992 037   115   111   6617 25.3999  1.1291 12.0715  6.5380  5.6659 0.05740  8.480 15.908 28.137 24.738  6.5123 20.2121 30.5863
 1992 038   116   112   6685 25.4292  1.0817 11.6252  6.4599  6.2207 0.07075  8.380 15.525 29.817 25.881  6.5282 20.2005 30.4981
 1992 039   117   113   6744 23.8569  1.0356 10.5069  5.8052  6.6107 0.08273  8.283 15.159 31.424 27.024  6.5501 20.1838 30.3781
 1992 040   118   114   6765 14.9455  1.2353  7.4898  3.2382  4.8947 0.00000  8.111 14.652 27.740 24.629  6.5454 20.1955 30.3954
 1992 041   119   115   6777 11.6264  1.1297  6.1886  2.3647  3.9404 0.00000  7.947 14.178 24.728 22.583  6.5369 20.2021 30.4425
 1992 042   120   116   6810 15.2107  1.0381  7.5620  3.5993  4.1256 0.01859  7.795 13.744 25.080 22.577  6.5303 20.2028 30.4828
 1992 043   121   117   6876 22.4205  0.8926 10.3366  5.8500  4.7052 0.05994  7.677 13.390 25.930 23.071  6.5293 20.1947 30.4971
 1992 044   122   118   6901 13.7400  1.0821  6.4504  2.7025  4.7126 0.00824  7.492 12.912 27.965 24.713  6.5279 20.2005 30.4999
 1992 045   123   119   6910  9.8021  0.9947  5.0101  1.8637  3.5309 0.00017  7.311 12.459 23.608 21.929  6.5215 20.2020 30.5386
 1992 046   124   120   6960 19.3432  0.9165  8.4475  4.8312  5.1580 0.03918  7.151 12.058 28.609 25.000  6.5253 20.2000 30.5169
 1992 047   125   121   7012 19.7559  0.8312  8.3448  5.0087  5.3030 0.05790  7.007 11.701 29.270 25.341  6.5326 20.1922 30.4789
 1992 048   126   122   7062 19.2495  0.7368  7.9996  4.8911  5.0646 0.07762  6.883 11.395 28.569 24.891  6.5412 20.1787 30.4391
 1992 049   127   123   7109 18.7608  0.8000  7.5601  4.6587  5.5200 0.05593  6.728 11.040 30.636 26.172  6.5495 20.1717 30.3939
 1992 050   128   124   7147 17.6355  0.8224  6.6962  4.1189  6.0991 0.05213  6.558 10.666 31.829 28.080  6.5610 20.1651 30.3289
 1992 051   129   125   7186 17.0379  0.9540  6.9654  2.7213  6.1783 0.00000  6.329 10.187 32.293 28.474  6.4918 20.3263 30.5998
 1992 052   130   126   7009 11.6807  0.7969  5.2981  2.2246  3.5937 0.00000  6.057  9.289 26.596 21.850  6.4513 20.3983 30.7813
 1992 053   131   127   6836  3.9920  0.5732  2.0125  0.7595  1.8562 0.00000  5.831  8.562 18.304 16.663  6.4503 20.3734 30.8122
 1992 054   132   128   6720  8.5003  0.5726  3.5527  1.5216  3.1066 0.00000  5.574  7.876 24.864 21.726  6.4288 20.4099 30.9098
 1992 055   133   129   6627  7.8067  0.4872  3.1537  1.5144  2.9001 0.00000  5.329  7.280 24.862 21.260  6.4264 20.4063 30.9289
 1992 056   134   130   6550  5.8681  0.4090  2.3319  1.0416  2.4551 0.00000  5.102  6.768 23.749 19.899  6.4244 20.3987 30.9486
 1992 057   135   131   6482  4.3720  0.3786  1.4058  0.5030  2.7539 0.00000  4.872  6.304 26.914 21.604  6.4234 20.3977 30.9559
 1992 058   136   132   6422  2.8542  0.3176  0.8374  0.2402  2.1389 0.00000  4.663  5.910 23.498 19.330  6.4228 20.3941 30.9637
 1992 059   137   133   6375  1.8980  0.2563  0.5577  0.1600  1.5072 0.00000  4.481  5.583 20.460 15.758  6.4227 20.3856 30.9725
 1992 060   138   134   6333  1.7809  0.2542  0.1329  0.0381  1.8735 0.00000  4.286  5.275 23.075 18.196  6.4226 20.3847 30.9740
 1992 061   139   135   6297  1.4486  0.2490  0.0000  0.0000  2.1818 0.00000  4.085  4.984 24.929 20.195  6.4226 20.3847 30.9740
 1992 062   140   136   6266  1.1722  0.2392  0.0000  0.0000  2.3649 0.00000  3.886  4.713 25.656 21.456  6.4226 20.3847 30.9740
 1992 063   141   137   6240  0.7263  0.2250  0.0000  0.0000  2.3864 0.00000  3.694  4.462 25.500 21.871  6.4226 20.3847 30.9740

*DSSAT Cropping System Model Ver. 4.6.1.000 -release      OCT 17, 2016; 11:33:03
                                                                                
*RUN   3        : UYSB                      CRGRO046 UYSB0875    1              
 MODEL          : CRGRO046 - Soybean                                            
 EXPERIMENT     : UYSB0875 SN late to create DSS                                
 DATA PATH      :                                                               
 TREATMENT  1   : UYSB                      CRGRO046                            
  
@YEAR DOY   DAS   DAP   TWAD    PHAD    CMAD    CGRD    GRAD    MRAD    CHAD   CL%D   CS%D   TGNN   TGAV    GN%D    GL%D    GC%D
 1992 291     4     0      0  0.0000  0.0000  0.0000  0.0000  0.0000 0.00000  0.000  0.000 19.804 16.522  0.0000  0.0000  0.0000
 1992 292     5     1      0  0.0000  0.0000  0.0000  0.0000  0.0000 0.00000  0.000  0.000 19.128 14.241  0.0000  0.0000  0.0000
 1992 293     6     2      0  0.0000  0.0000  0.0000  0.0000  0.0000 0.00000  0.000  0.000 18.504 15.435  0.0000  0.0000  0.0000
 1992 294     7     3      0  0.0000  0.0000  0.0000  0.0000  0.0000 0.00000  0.000  0.000 17.353 14.391  0.0000  0.0000  0.0000
 1992 295     8     4      0  0.0000  0.0000  0.0000  0.0000  0.0000 0.00000  0.000  0.000 18.935 13.295  0.0000  0.0000  0.0000
 1992 296     9     5      0  0.0000  0.0000  0.0000  0.0000  0.0000 0.00000  0.000  0.000 21.979 15.945  0.0000  0.0000  0.0000
 1992 297    10     6      0  0.0000  0.0000  0.0000  0.0000  0.0000 0.00000  0.000  0.000 25.026 19.562  0.0000  0.0000  0.0000
 1992 298    11     7      8  0.0000  0.0006  0.0004  0.0002  0.0000 0.00000  3.934  7.862 28.485 22.663  0.0000  0.0000  0.0000
 1992 299    12     8      8  0.0932  0.0006  0.0569  0.0197  0.0088 0.00000  3.876  7.748 25.101 21.957  0.0000  0.0000  0.0000
 1992 300    13     9      9  0.2060  0.0006  0.1297  0.0428  0.0158 0.00000  3.828  7.678 25.914 22.305  0.0000  0.0000  0.0000
 1992 301    14    10     11  0.2357  0.0007  0.1481  0.0493  0.0193 0.00000  3.784  7.620 27.917 22.842  0.0000  0.0000  0.0000
 1992 302    15    11     11  0.0577  0.0002  0.0364  0.0137  0.0028 0.00000  3.775  7.600 13.999 10.817  0.0000  0.0000  0.0000
 1992 303    16    12     12  0.1709  0.0003  0.1123  0.0370  0.0070 0.00000  3.764  7.597 19.277 12.841  0.0000  0.0000  0.0000
 1992 304    17    13     13  0.1893  0.0004  0.1242  0.0406  0.0084 0.00000  3.750  7.589 19.563 14.056  0.0000  0.0000  0.0000
 1992 305    18    14     15  0.2265  0.0005  0.1486  0.0476  0.0112 0.00000  3.732  7.578 21.338 15.258  0.0000  0.0000  0.0000
 1992 306    19    15     17  0.2971  0.0008  0.1934  0.0609  0.0181 0.00000  3.707  7.559 24.487 18.012  0.0000  0.0000  0.0000
 1992 307    20    16     19  0.3336  0.0011  0.2130  0.0668  0.0270 0.00000  3.671  7.516 27.724 21.571  0.0000  0.0000  0.0000
 1992 308    21    17     20  0.2100  0.0007  0.1374  0.0444  0.0107 0.00000  3.657  7.497 18.307 14.586  0.0000  0.0000  0.0000
 1992 309    22    18     21  0.1322  0.0003  0.0863  0.0291  0.0052 0.00000  3.657  7.493 13.012 10.293  0.0000  0.0000  0.0000
 1992 310    23    19     22  0.1361  0.0003  0.0896  0.0289  0.0054 0.00000  3.654  7.489 14.445  9.542  0.0000  0.0000  0.0000
 1992 311    24    20     23  0.2082  0.0005  0.1378  0.0428  0.0090 0.00000  3.647  7.484 17.151 11.997  0.0000  0.0000  0.0000
 1992 312    25    21     25  0.2752  0.0008  0.1695  0.0671  0.0139 0.00000  3.660  7.453 19.485 14.402  0.0000  0.0000  0.0000
 1992 313    26    22     27  0.3872  0.0011  0.2390  0.0913  0.0226 0.00000  3.667  7.421 22.809 16.759  0.0000  0.0000  0.0000
 1992 314    27    23     30  0.5113  0.0016  0.3139  0.1155  0.0377 0.00000  3.663  7.389 27.006 19.917  0.0000  0.0000  0.0000
 1992 315    28    24     31  0.2400  0.0017  0.1456  0.0544  0.0215 0.00000  3.635  7.323 21.156 19.007  0.0000  0.0000  0.0000
 1992 316    29    25     35  0.6014  0.0022  0.3719  0.1305  0.0505 0.00000  3.615  7.306 26.674 22.269  0.0000  0.0000  0.0000
 1992 317    30    26     39  0.7440  0.0024  0.4584  0.1634  0.0618 0.00000  3.603  7.303 27.512 22.427  0.0000  0.0000  0.0000
 1992 318    31    27     44  0.8585  0.0024  0.5309  0.1956  0.0609 0.00000  3.607  7.311 25.806 20.433  0.0000  0.0000  0.0000
 1992 319    32    28     49  0.8066  0.0031  0.4901  0.1774  0.0745 0.00000  3.591  7.290 29.032 22.943  0.0000  0.0000  0.0000
 1992 320    33    29     55  1.0135  0.0032  0.6360  0.2173  0.0765 0.00000  3.575  7.309 24.361 21.423  0.0000  0.0000  0.0000
 1992 321    34    30     61  0.9174  0.0023  0.5852  0.2065  0.0456 0.00000  3.580  7.333 19.166 15.978  0.0000  0.0000  0.0000
 1992 322    35    31     67  0.9388  0.0022  0.6053  0.2053  0.0438 0.00000  3.583  7.362 19.592 14.648  0.0000  0.0000  0.0000
 1992 323    36    32     74  1.1375  0.0027  0.7171  0.2586  0.0581 0.00000  3.597  7.375 21.596 15.612  0.0000  0.0000  0.0000
 1992 324    37    33     84  1.5887  0.0044  0.9885  0.3490  0.1084 0.00000  3.600  7.379 25.773 19.718  0.0000  0.0000  0.0000
 1992 325    38    34     93  1.5569  0.0058  0.9568  0.3344  0.1319 0.00000  3.585  7.359 27.774 21.970  0.0000  0.0000  0.0000
 1992 326    39    35     97  0.7387  0.0046  0.4556  0.1636  0.0578 0.00000  3.565  7.315 20.158 17.435  0.0000  0.0000  0.0000
 1992 327    40    36    105  1.3209  0.0035  0.8394  0.3054  0.0622 0.00000  3.572  7.329 18.028 14.695  0.0000  0.0000  0.0000
 1992 328    41    37    113  1.2669  0.0033  0.8141  0.2843  0.0585 0.00000  3.573  7.347 18.661 13.572  0.0000  0.0000  0.0000
 1992 329    42    38    126  2.0942  0.0063  1.3249  0.4569  0.1343 0.00000  3.566  7.360 23.969 18.629  0.0000  0.0000  0.0000
 1992 330    43    39    139  2.1555  0.0078  1.3562  0.4681  0.1496 0.00000  3.554  7.354 22.744 19.697  0.0000  0.0000  0.0000
 1992 331    44    40    153  2.2865  0.0090  1.4350  0.4893  0.1709 0.00000  3.537  7.343 24.411 20.218  0.0000  0.0000  0.0000
 1992 332    45    41    172  3.1664  0.0099  1.9997  0.6758  0.2217 0.00000  3.529  7.357 25.261 20.136  0.0000  0.0000  0.0000
 1992 333    46    42    190  2.8747  0.0117  1.8037  0.6053  0.2255 0.00000  3.511  7.342 25.778 20.688  0.0000  0.0000  0.0000
 1992 334    47    43    206  3.0001  0.0153  1.7732  0.6941  0.2943 0.00000  3.515  7.278 28.057 23.433  0.0000  0.0000  0.0000
 1992 335    48    44    227  3.7196  0.0169  2.2122  0.8640  0.3433 0.00000  3.522  7.231 26.745 23.412  0.0000  0.0000  0.0000
 1992 336    49    45    255  4.7023  0.0136  2.8857  1.0975  0.2915 0.00000  3.550  7.237 22.566 19.017  0.0000  0.0000  0.0000
 1992 337    50    46    286  5.0760  0.0127  3.1392  1.1841  0.2771 0.00000  3.577  7.254 22.660 16.961  0.0000  0.0000  0.0000
 1992 338    51    47    323  6.0793  0.0169  3.7277  1.4069  0.3845 0.00000  3.594  7.262 25.021 18.677  0.0000  0.0000  0.0000
 1992 339    52    48    366  7.3702  0.0234  4.4614  1.7118  0.5608 0.00000  3.602  7.257 27.006 21.414  0.0000  0.0000  0.0000
 1992 340    53    49    405  6.5746  0.0264  3.9716  1.5382  0.5211 0.00000  3.596  7.232 26.269 21.108  0.0000  0.0000  0.0000
 1992 341    54    50    457  8.7805  0.0353  5.6373  1.8245  0.8237 0.00101  3.624  7.213 28.167 24.332  0.0000  0.0000  0.0000
 1992 342    55    51    512  9.7051  0.0328  5.3886  2.3655  0.7094 0.02832  3.640  7.337 24.928 20.986  0.0000  0.0000  0.0000
 1992 343    56    52    579 11.4011  0.0385  6.7188  2.6000  0.8629 0.07014  3.719  7.602 26.149 21.454  0.0000  0.0000  0.0000
 1992 344    57    53    646 11.5646  0.0455  6.8184  2.6825  0.9067 0.10803  3.819  7.923 25.338 21.682  0.0000  0.0000  0.0000
 1992 345    58    54    724 13.4116  0.0565  7.8302  3.0871  1.1282 0.16949  3.951  8.340 26.072 22.775  0.0000  0.0000  0.0000
 1992 346    59    55    813 15.0278  0.0594  8.7889  3.4993  1.1231 0.23741  4.112  8.835 25.060 21.190  0.0000  0.0000  0.0000
 1992 347    60    56    922 18.4616  0.0663 10.7716  4.3146  1.2900 0.34611  4.312  9.436 25.448 20.467  0.0000  0.0000  0.0000
 1992 348    61    57   1039 20.4286  0.0905 11.6265  4.7079  1.7239 0.43956  4.522 10.031 28.162 22.680  0.0000  0.0000  0.0000
 1992 349    62    58   1163 21.4225  0.1064 12.8072  4.6617  1.7483 0.55788  4.775 10.661 26.709 22.159  0.0000  0.0000  0.0000
 1992 350    63    59   1301 23.1107  0.1013 13.6856  5.1188  1.5561 0.66034  5.006 11.293 25.605 19.155  0.0000  0.0000  0.0000
 1992 351    64    60   1432 22.6062  0.1380 13.1943  4.8650  1.8754 0.70812  5.202 11.829 27.499 21.300  0.0000  0.0000  0.0000
 1992 352    65    61   1551 20.8752  0.1779 12.1257  4.3685  1.9760 0.72660  5.371 12.276 26.283 22.736  0.0000  0.0000  0.0000
 1992 353    66    62   1711 27.4332  0.1924 15.8242  5.8451  2.4725 1.04378  5.596 12.890 28.286 22.589  0.0000  0.0000  0.0000
 1992 354    67    63   1821 22.1276  0.2246 10.3408  5.5687  2.2838 0.75645  5.657 13.189 28.646 22.842  0.0000  0.0000  0.0000
 1992 355    68    64   1984 30.9256  0.2792 17.1319  6.1923  3.6182 1.36541  5.942 13.833 31.713 26.088  0.0000  0.0000  0.0000
 1992 356    69    65   2156 29.0956  0.2956 17.3742  5.4951  3.1647 1.42640  6.174 14.407 30.180 24.197  0.0000  0.0000  0.0000
 1992 357    70    66   2249 17.9552  0.3492 10.0059  3.5237  2.4200 0.87213  6.256 14.616 27.964 24.095  0.0000  0.0000  0.0000
 1992 358    71    67   2343 18.4489  0.3798 10.5124  3.4435  2.5145 0.95379  6.363 14.852 26.782 24.310  0.0000  0.0000  0.0000
 1992 359    72    68   2542 33.0742  0.3789 20.0804  6.0391  3.3493 1.95983  6.636 15.536 27.410 23.397  0.0000  0.0000  0.0000
 1992 360    73    69   2716 30.8746  0.3793 17.3651  6.1768  2.8512 1.76431  6.842 16.060 25.763 21.356  0.0000  0.0000  0.0000
 1992 361    74    70   2947 36.6375  0.0000 19.8609  5.5546  3.0416 4.66901  7.744 18.497 25.510 20.422  0.0000  0.0000  0.0000
 1992 362    75    71   3183 37.0552  0.0000 18.7534  5.2578  3.1927 6.40719  8.911 21.629 25.949 20.431  0.0000  0.0000  0.0000
 1992 363    76    72   3415 36.9794  0.0000 17.1850  4.6831  4.0238 7.69466 10.224 25.071 29.481 22.709  0.0000  0.0000  0.0000
 1992 364    77    73   3497 17.5479  0.8689 10.1564  3.1282  2.7620 0.88289 10.174 24.832 24.813 22.699  0.0000  0.0000  0.0000
 1992 365    78    74   3582 17.6775  0.8115 10.2717  3.2829  2.5392 0.85410 10.135 24.634 22.806 21.480  0.0000  0.0000  0.0000
 1992 366    79    75   3634 15.3978  0.4528  8.5799  2.8338  2.1088 0.61349 10.155 24.590 20.066 19.708  0.0000  0.0000  0.0000
 1993 001    80    76   3689 16.3102  0.7707  9.1544  3.0835  2.3083 0.56657 10.112 24.397 20.986 20.413  0.0000  0.0000  0.0000
 1993 002    81    77   3749 16.6991  0.7863  9.4012  3.1075  2.3932 0.54256 10.070 24.205 21.479 20.619  0.0000  0.0000  0.0000
 1993 003    82    78   3808 16.9061  0.8018  9.3772  3.1457  2.4695 0.48383 10.026 24.013 21.606 20.817  0.0000  0.0000  0.0000
 1993 004    83    79   3927 25.6801  1.0069 14.1835  4.5003  3.9467 1.26730 10.021 23.895 27.681 24.419  0.0000  0.0000  0.0000
 1993 005    84    80   4102 33.9832  1.1022 18.7564  5.6053  5.1955 2.06854 10.075 23.915 29.553 26.219  0.0000  0.0000  0.0000
 1993 006    85    81   4298 38.2563  1.1097 20.4080  6.7443  5.5853 2.50202 10.165 24.032 30.349 25.940  0.0000  0.0000  0.0000
 1993 007    86    82   4398 23.0510  0.6880 12.2047  4.3554  3.8516 0.70351 10.192 23.998 26.273 23.799  0.0000  0.0000  0.0000
 1993 008    87    83   4552 31.4847  1.0365 17.3062  5.8249  4.3051 1.51814 10.232 24.008 25.725 23.395  0.0000  0.0000  0.0000
 1993 009    88    84   4740 38.8799  1.0353 21.5963  7.1885  4.2519 2.50016 10.354 24.204 25.431 21.524  6.2052 20.1590 32.5583
 1993 010    89    85   4924 39.0922  1.2145 20.8186  7.1623  5.2296 2.44398 10.447 24.338 29.062 23.650  6.3328 20.4851 31.4348
 1993 011    90    86   5096 39.3805  1.3625 20.7123  7.4769  5.8756 2.36614 10.519 24.421 30.227 24.994  6.4094 20.4943 30.9472
 1993 012    91    87   5251 39.2145  1.5146 19.5938  7.7379  6.4597 2.03419 10.536 24.396 30.927 26.232  6.4865 20.4971 30.4622
 1993 013    92    88   5336 33.8587  1.6217 16.5726  6.8640  6.4243 1.19616 10.490 24.199 31.332 26.924  6.5445 20.4983 30.0985
 1993 014    93    89   5420 28.9260  1.6731 14.5910  6.2324  5.7352 0.19974 10.357 23.786 29.041 26.245  6.5544 20.4990 30.0362
 1993 015    94    90   5525 36.6433  1.6993 18.4561  7.6647  6.5843 0.97186 10.291 23.540 29.671 26.696  6.5717 20.4993 29.9277
 1993 016    95    91   5600 28.7917  1.6681 14.4838  6.3748  5.4537 0.00000 10.142 23.086 27.614 25.285  6.5440 20.4995 30.1004
 1993 017    96    92   5711 33.6459  1.2730 16.9738  7.9965  3.8623 0.25783 10.063 22.806 22.385 19.984  6.4459 20.2288 30.9841
 1993 018    97    93   5825 32.1386  1.1679 16.5805  7.8706  3.4293 0.39760 10.011 22.592 23.008 18.313  6.3949 19.8214 31.7106
 1993 019    98    94   5965 35.6528  0.8536 19.0784  7.9907  4.5219 0.41359 10.020 22.507 25.006 21.100  6.3527 19.8603 31.9350
 1993 020    99    95   6085 37.5287  1.5815 18.3039  8.9642  5.6726 0.31814  9.915 22.161 28.245 23.408  6.3464 19.9769 31.8584
 1993 021   100    96   6215 37.4152  1.6214 19.5087  8.3835  6.1332 0.26124  9.801 21.792 29.693 24.212  6.3532 20.0625 31.7298
 1993 022   101    97   6310 37.1262  1.7592 17.5829  8.5722  7.2137 0.09664  9.655 21.340 31.351 26.550  6.3890 20.1273 31.4414
 1993 023   102    98   6387 34.1905  1.8193 15.9915  7.6794  7.7555 0.00000  9.491 20.840 32.630 28.044  6.4353 20.1783 31.1010
 1993 024   103    99   6457 35.5861  1.8305 16.4239  8.0362  8.2535 0.00000  9.323 20.332 33.095 28.689  6.4802 20.2197 30.7791
 1993 025   104   100   6469 25.3943  1.6668 12.6789  6.0529  5.4002 0.00000  9.174 19.866 26.683 24.319  6.4684 20.2599 30.8127
 1993 026   105   101   6530 32.2083  1.6395 15.2445  7.6731  6.4208 0.00000  9.026 19.397 29.845 25.332  6.4710 20.2931 30.7632
 1993 027   106   102   6533 16.6161  1.4428  9.0379  3.8738  4.1055 0.00804  8.902 18.984 23.844 22.160  6.4448 20.2893 30.9308
 1993 028   107   103   6607 33.7504  1.5846 15.8833  8.5639  6.2854 0.00000  8.763 18.516 28.198 24.868  6.4450 20.3166 30.9024
 1993 029   108   104   6675 30.5139  1.4880 15.1092  7.7156  5.4899 0.00000  8.631 18.068 26.781 23.415  6.4295 20.3386 30.9774
 1993 030   109   105   6763 34.2683  1.4708 16.6680  8.7028  5.9747 0.00000  8.498 17.617 27.824 23.814  6.4207 20.3571 31.0136
 1993 031   110   106   6798 20.6615  1.3509 10.8759  5.0009  4.7114 0.01781  8.381 17.206 24.551 22.904  6.4131 20.3546 31.0633
 1993 032   111   107   6859 29.7134  1.4322 14.2890  7.6921  5.8123 0.00000  8.245 16.748 27.384 24.055  6.4150 20.3576 31.0486
 1993 033   112   108   6919 30.7840  1.3811 14.8814  7.9856  5.7545 0.00000  8.110 16.295 26.852 23.702  6.4119 20.3635 31.0622
 1993 034   113   109   6999 28.9244  1.0304 13.9477  7.4127  5.4327 0.08723  8.044 15.997 26.534 23.098  6.4222 20.3306 31.0306
 1993 035   114   110   7092 30.9095  0.9182 14.9558  8.5539  4.9843 0.09221  7.989 15.735 25.917 21.443  6.4232 20.2718 31.0834
 1993 036   115   111   7170 30.3191  0.9397 13.9606  8.0238  6.1704 0.11315  7.934 15.469 28.640 24.239  6.4436 20.2419 30.9859
 1993 037   116   112   7233 26.6931  1.0757 12.4922  6.8713  6.0335 0.06257  7.837 15.119 29.219 24.282  6.4523 20.2338 30.9394
 1993 038   117   113   7268 15.7828  1.0680  8.6074  3.9180  3.5774 0.00547  7.714 14.730 22.050 19.689  6.4418 20.1935 31.0450
 1993 039   118   114   7281  9.6526  0.9605  5.9587  2.1983  2.5738 0.00006  7.597 14.371 18.893 17.140  6.4372 20.1124 31.1552
 1993 040   119   115   7330 16.0162  0.8820  8.6770  4.3770  2.9042 0.02371  7.496 14.050 20.128 17.482  6.4340 20.0067 31.2811
 1993 041   120   116   7412 24.3102  0.7263 11.7765  6.8615  3.8609 0.08692  7.435 13.819 24.222 19.109  6.4354 19.9242 31.3546
 1993 042   121   117   7496 26.5373  0.7760 12.1134  7.2022  5.0201 0.09994  7.365 13.571 27.343 22.052  6.4404 19.9117 31.3357
 1993 043   122   118   7566 24.3488  0.8621 10.8720  6.3538  5.4655 0.08361  7.268 13.274 28.653 23.649  6.4483 19.9114 31.2866
 1993 044   123   119   7627 21.0743  0.8650  9.7289  5.5061  4.5905 0.06667  7.158 12.960 25.875 22.158  6.4498 19.9075 31.2810
 1993 045   124   120   7690 22.1069  0.8335  9.8518  5.7804  4.9794 0.07489  7.050 12.658 27.925 22.887  6.4539 19.9061 31.2571
 1993 046   125   121   7758 22.4929  0.7732 10.0007  6.0256  4.7111 0.08382  6.948 12.382 26.881 22.236  6.4573 19.8989 31.2429
 1993 047   126   122   7768 11.4213  1.0035  5.6190  2.5455  3.7200 0.00000  6.769 11.952 24.511 21.403  6.4524 19.9032 31.2696
 1993 048   127   123   7777 10.7894  0.9575  5.1971  2.3393  3.6761 0.00680  6.593 11.540 23.638 21.567  6.4489 19.9061 31.2882
 1993 049   128   124   7818 16.7366  0.9299  7.2703  3.9712  4.8268 0.02544  6.419 11.143 27.774 23.882  6.4499 19.9139 31.2742
 1993 050   129   125   7849 14.3328  0.9175  6.1822  3.0558  4.5708 0.02177  6.240 10.743 26.548 23.799  6.4506 19.9201 31.2638
 1993 051   130   126   7883 13.6741  0.8516  6.1830  3.3601  3.7118 0.01285  6.066 10.362 24.184 21.293  6.4471 19.9201 31.2852
 1993 052   131   127   7926 13.8669  0.5900  6.3792  3.9280  2.7041 0.05681  5.956 10.124 21.372 17.519  6.4498 19.8619 31.3266
 1993 053   132   128   7976 15.4047  0.7977  7.3627  3.4562  3.2063 0.00000  5.778  9.752 23.913 18.990  6.3994 19.9315 31.5720
 1993 054   133   129   7793 14.8217  0.0000  6.6119  2.5905  3.2739 0.30593  5.854  9.403 24.042 19.441  6.3406 20.0288 31.8422
 1993 055   134   130   7640 12.2957  0.6068  5.6616  2.3105  3.2918 0.03237  5.650  8.649 24.409 20.451  6.2976 20.1071 32.0331
 1993 056   135   131   7499  8.5279  0.6165  3.5415  1.9084  3.1231 0.00000  5.403  7.917 24.818 20.897  6.2964 20.1053 32.0420
 1993 057   136   132   7385  7.3812  0.5363  2.8645  1.5095  3.1014 0.00000  5.160  7.274 25.505 21.335  6.2956 20.1052 32.0471
 1993 058   137   133   7286  5.6566  0.4822  1.8079  0.7822  3.4007 0.00000  4.918  6.703 28.306 22.997  6.2956 20.1071 32.0455
 1993 059   138   134   7194  3.6223  0.4547  0.0029  0.0008  4.0735 0.00000  4.656  6.181 30.968 26.516  6.2956 20.1071 32.0455
 1993 060   139   135   7124  2.7710  0.3559  0.5014  0.1438  2.5019 0.00000  4.441  5.756 23.942 20.595  6.2954 20.1067 32.0470
 1993 061   140   136   7067  2.1533  0.2944  0.4327  0.1241  1.9249 0.00000  4.253  5.400 21.825 17.767  6.2953 20.1039 32.0502
 1993 062   141   137   7018  1.8975  0.2725  0.1392  0.0399  2.0007 0.00000  4.066  5.080 22.937 18.239  6.2953 20.1032 32.0511
 1993 063   142   138   6978  1.2805  0.2370  0.0000  0.0000  1.6618 0.00000  3.896  4.805 21.076 16.487  6.2953 20.1032 32.0511
 1993 064   143   139   6944  1.0732  0.2396  0.0000  0.0000  2.0994 0.00000  3.718  4.542 23.906 19.175  6.2953 20.1032 32.0511
 1993 065   144   140   6913  0.6467  0.2443  0.0000  0.0000  2.6138 0.00000  3.532  4.286 25.288 22.337  6.2953 20.1032 32.0511
