*PLANT N BALANCE

*DSSAT Cropping System Model Ver. 4.6.1.000 -release      NOV 01, 2016; 12:29:55
                                                                                
*RUN   1        : UYSB                      CRGRO046 UYSB1029    1              
 MODEL          : CRGRO046 - Soybean                                            
 EXPERIMENT     : UYSB1029 SN late to create DSS                                
 DATA PATH      :                                                               
 TREATMENT  1   : UYSB                      CRGRO046                            
                                                                                
                                                                                
 CROP           : Soybean          CULTIVAR : GM 4 URUGUAY     ECOTYPE :INDETE  
 STARTING DATE  : OCT 30 1987                                                   
 PLANTING DATE  : NOV  2 1987        PLANTS/m2 :  7.0     ROW SPACING :  15.cm  
 WEATHER        : UYTA   1987                                                   
 SOIL           : UYSS0N2002     TEXTURE : -99   -  N20-02    SNIA CLAY RISS    
 SOIL INITIAL C : DEPTH:125cm EXTR. H2O:154.7mm  NO3: 28.7kg/ha  NH4: 24.1kg/ha 
 WATER BALANCE  : AUTOMATIC IRRIGATION - REFILL PROFILE                         
 IRRIGATION     : AUTOMATIC - PLANTING -> MATURITY [ SOIL DEPTH: 0.30m 50.%]    
 NITROGEN BAL.  : SOIL-N, N-UPTAKE & DYNAMIC N-FIXATION SIMULATION              
 N-FERTILIZER   :       10 kg/ha IN     1 APPLICATIONS                          
 RESIDUE/MANURE : INITIAL :     0 kg/ha ;       0 kg/ha IN     0 APPLICATIONS   
 ENVIRONM. OPT. : DAYL=    0.00  SRAD=    0.00  TMAX=    0.00  TMIN=    0.00    
                  RAIN=    0.00  CO2 =    0.00  DEW =    0.00  WIND=    0.00    
 SIMULATION OPT : WATER   :Y  NITROGEN:Y  N-FIX:Y  PHOSPH :N  PESTS  :N         
                  PHOTO   :C  ET      :R  INFIL:S  HYDROL :R  SOM    :G         
                  CO2 350ppm  NSWIT   :1  EVAP :S  SOIL   :2  STEMP  :D         
 MANAGEMENT OPT : PLANTING:R  IRRIG   :A  FERT :D  RESIDUE:N  HARVEST:M         
                  WEATHER :M  TILLAGE :N                                        
                                                                                
*SUMMARY OF SOIL AND GENETIC INPUT PARAMETERS                                   
                                                                                
   SOIL LOWER UPPER   SAT  EXTR  INIT   ROOT   BULK     pH    NO3    NH4    ORG 
  DEPTH LIMIT LIMIT    SW    SW    SW   DIST   DENS                          C  
   cm   cm3/cm3    cm3/cm3    cm3/cm3         g/cm3         ugN/g  ugN/g     %  
------------------------------------------------------------------------------- 
  0-  5 0.215 0.440 0.484 0.225 0.282   1.00   1.05   0.40   5.00   1.50   4.64 
  5- 15 0.215 0.440 0.484 0.225 0.282   1.00   1.05   0.40   5.00   1.50   4.64 
 15- 30 0.215 0.440 0.484 0.225 0.282   1.00   1.05   0.40   5.00   1.50   4.64 
 30- 41 0.219 0.365 0.457 0.146 0.262   0.40   1.22   6.80   4.60   1.50   2.74 
 41- 53 0.219 0.365 0.457 0.146 0.262   0.40   1.22   6.80   4.60   1.50   2.74 
 53- 63 0.215 0.287 0.429 0.072 0.287   0.10   1.38   7.30   0.00   1.50   1.07 
 63- 74 0.215 0.287 0.429 0.072 0.287   0.10   1.38   7.30   0.00   1.50   1.07 
 74- 84 0.215 0.287 0.429 0.072 0.287   0.10   1.38   7.30   0.00   1.50   1.07 
 84-110 0.214 0.275 0.424 0.061 0.275   0.10   1.41   7.80   0.00   1.50   0.71 
110-125 0.209 0.312 0.438 0.103 0.312   0.00   1.44   8.00   0.00   1.50   0.35 
                                                                                
TOT-125  26.9  42.3  55.9  15.5  35.2  <--cm   -  kg/ha-->   28.7   24.1 302408 
SOIL ALBEDO    : 0.12      EVAPORATION LIMIT :10.00         MIN. FACTOR  : 1.00 
RUNOFF CURVE # : 0.75      DRAINAGE RATE     : 0.25         FERT. FACTOR : 1.00 
                                                                                
 Soybean    CULTIVAR :UY0141-GM 4 URUGUAY       ECOTYPE :INDETE                 
 CSDVAR :13.39  PPSEN  : 0.29  EMG-FLW:20.80  FLW-FSD:18.00  FSD-PHM : 36.00    
 WTPSD  :0.200  SDPDVR : 1.70  SDFDUR :26.00  PODDUR :10.00  XFRUIT  :  1.00    
 THRESH : 77.0  SDPRO  :0.405  SDLIP   : 0.205                                  


   PLANT COMPONENT  HARVEST     LOST*   TOTAL  BALANCE
   ---------------  -------- kg[N]/ha -------  -------
   Leaf N              1.06    21.57    22.63
   Stem N              6.58     3.69    10.27
   Shell N            19.40    23.84    43.24
   Seed N            217.61     0.00   217.61
   Root N              4.52     7.90    12.42
   Nodule N            2.01     3.86     5.88
   Total N           251.19    60.87   312.06
   N leakage                            20.59
   TOTAL N                                      332.65


   N INPUTS TO SYSTEM                kg[N]/ha
   ------------------                --------
   Seed N At Planting                    0.68
   N2 Fixed                            143.26
   N Uptake from Soil                  188.73
   TOTAL N                                      332.67

   * Lost due to senescence, freeze, pest or disease damage.

*******************************************************************************

*DSSAT Cropping System Model Ver. 4.6.1.000 -release      NOV 01, 2016; 12:29:55
                                                                                
*RUN   2        : UYSB                      CRGRO046 UYSB1029    1              
 MODEL          : CRGRO046 - Soybean                                            
 EXPERIMENT     : UYSB1029 SN late to create DSS                                
 DATA PATH      :                                                               
 TREATMENT  1   : UYSB                      CRGRO046                            
                                                                                
                                                                                
 CROP           : Soybean          CULTIVAR : GM 4 URUGUAY     ECOTYPE :INDETE  
 STARTING DATE  : OCT 29 1988                                                   
 PLANTING DATE  : NOV  1 1988        PLANTS/m2 :  7.0     ROW SPACING :  15.cm  
 WEATHER        : UYTA8801                                                      
 SOIL           : UYSS0N2002     TEXTURE : -99   -  N20-02    SNIA CLAY RISS    
 SOIL INITIAL C : DEPTH:125cm EXTR. H2O:154.7mm  NO3: 28.7kg/ha  NH4: 24.1kg/ha 
 WATER BALANCE  : AUTOMATIC IRRIGATION - REFILL PROFILE                         
 IRRIGATION     : AUTOMATIC - PLANTING -> MATURITY [ SOIL DEPTH: 0.30m 50.%]    
 NITROGEN BAL.  : SOIL-N, N-UPTAKE & DYNAMIC N-FIXATION SIMULATION              
 N-FERTILIZER   :       10 kg/ha IN     1 APPLICATIONS                          
 RESIDUE/MANURE : INITIAL :     0 kg/ha ;       0 kg/ha IN     0 APPLICATIONS   
 ENVIRONM. OPT. : DAYL=    0.00  SRAD=    0.00  TMAX=    0.00  TMIN=    0.00    
                  RAIN=    0.00  CO2 =    0.00  DEW =    0.00  WIND=    0.00    
 SIMULATION OPT : WATER   :Y  NITROGEN:Y  N-FIX:Y  PHOSPH :N  PESTS  :N         
                  PHOTO   :C  ET      :R  INFIL:S  HYDROL :R  SOM    :G         
                  CO2 352ppm  NSWIT   :1  EVAP :S  SOIL   :2  STEMP  :D         
 MANAGEMENT OPT : PLANTING:R  IRRIG   :A  FERT :D  RESIDUE:N  HARVEST:M         
                  WEATHER :M  TILLAGE :N                                        
                                                                                
*SUMMARY OF SOIL AND GENETIC INPUT PARAMETERS                                   
                                                                                
   SOIL LOWER UPPER   SAT  EXTR  INIT   ROOT   BULK     pH    NO3    NH4    ORG 
  DEPTH LIMIT LIMIT    SW    SW    SW   DIST   DENS                          C  
   cm   cm3/cm3    cm3/cm3    cm3/cm3         g/cm3         ugN/g  ugN/g     %  
------------------------------------------------------------------------------- 
  0-  5 0.215 0.440 0.484 0.225 0.282   1.00   1.05   0.40   5.00   1.50   4.64 
  5- 15 0.215 0.440 0.484 0.225 0.282   1.00   1.05   0.40   5.00   1.50   4.64 
 15- 30 0.215 0.440 0.484 0.225 0.282   1.00   1.05   0.40   5.00   1.50   4.64 
 30- 41 0.219 0.365 0.457 0.146 0.262   0.40   1.22   6.80   4.60   1.50   2.74 
 41- 53 0.219 0.365 0.457 0.146 0.262   0.40   1.22   6.80   4.60   1.50   2.74 
 53- 63 0.215 0.287 0.429 0.072 0.287   0.10   1.38   7.30   0.00   1.50   1.07 
 63- 74 0.215 0.287 0.429 0.072 0.287   0.10   1.38   7.30   0.00   1.50   1.07 
 74- 84 0.215 0.287 0.429 0.072 0.287   0.10   1.38   7.30   0.00   1.50   1.07 
 84-110 0.214 0.275 0.424 0.061 0.275   0.10   1.41   7.80   0.00   1.50   0.71 
110-125 0.209 0.312 0.438 0.103 0.312   0.00   1.44   8.00   0.00   1.50   0.35 
                                                                                
TOT-125  26.9  42.3  55.9  15.5  35.2  <--cm   -  kg/ha-->   28.7   24.1 302408 
SOIL ALBEDO    : 0.12      EVAPORATION LIMIT :10.00         MIN. FACTOR  : 1.00 
RUNOFF CURVE # : 0.75      DRAINAGE RATE     : 0.25         FERT. FACTOR : 1.00 
                                                                                
 Soybean    CULTIVAR :UY0141-GM 4 URUGUAY       ECOTYPE :INDETE                 
 CSDVAR :13.39  PPSEN  : 0.29  EMG-FLW:20.80  FLW-FSD:18.00  FSD-PHM : 36.00    
 WTPSD  :0.200  SDPDVR : 1.70  SDFDUR :26.00  PODDUR :10.00  XFRUIT  :  1.00    
 THRESH : 77.0  SDPRO  :0.405  SDLIP   : 0.205                                  


   PLANT COMPONENT  HARVEST     LOST*   TOTAL  BALANCE
   ---------------  -------- kg[N]/ha -------  -------
   Leaf N              1.29    24.87    26.17
   Stem N              7.96     4.29    12.25
   Shell N            21.08    24.60    45.68
   Seed N            242.94     0.00   242.94
   Root N              6.17     7.27    13.44
   Nodule N            2.43     4.22     6.65
   Total N           281.87    65.25   347.12
   N leakage                            18.39
   TOTAL N                                      365.51


   N INPUTS TO SYSTEM                kg[N]/ha
   ------------------                --------
   Seed N At Planting                    0.68
   N2 Fixed                            187.97
   N Uptake from Soil                  176.89
   TOTAL N                                      365.54

   * Lost due to senescence, freeze, pest or disease damage.

*******************************************************************************

*DSSAT Cropping System Model Ver. 4.6.1.000 -release      NOV 01, 2016; 12:29:55
                                                                                
*RUN   3        : UYSB                      CRGRO046 UYSB1029    1              
 MODEL          : CRGRO046 - Soybean                                            
 EXPERIMENT     : UYSB1029 SN late to create DSS                                
 DATA PATH      :                                                               
 TREATMENT  1   : UYSB                      CRGRO046                            
                                                                                
                                                                                
 CROP           : Soybean          CULTIVAR : GM 4 URUGUAY     ECOTYPE :INDETE  
 STARTING DATE  : OCT 30 1989                                                   
 PLANTING DATE  : NOV  2 1989        PLANTS/m2 :  7.0     ROW SPACING :  15.cm  
 WEATHER        : UYTA8901                                                      
 SOIL           : UYSS0N2002     TEXTURE : -99   -  N20-02    SNIA CLAY RISS    
 SOIL INITIAL C : DEPTH:125cm EXTR. H2O:154.7mm  NO3: 28.7kg/ha  NH4: 24.1kg/ha 
 WATER BALANCE  : AUTOMATIC IRRIGATION - REFILL PROFILE                         
 IRRIGATION     : AUTOMATIC - PLANTING -> MATURITY [ SOIL DEPTH: 0.30m 50.%]    
 NITROGEN BAL.  : SOIL-N, N-UPTAKE & DYNAMIC N-FIXATION SIMULATION              
 N-FERTILIZER   :       10 kg/ha IN     1 APPLICATIONS                          
 RESIDUE/MANURE : INITIAL :     0 kg/ha ;       0 kg/ha IN     0 APPLICATIONS   
 ENVIRONM. OPT. : DAYL=    0.00  SRAD=    0.00  TMAX=    0.00  TMIN=    0.00    
                  RAIN=    0.00  CO2 =    0.00  DEW =    0.00  WIND=    0.00    
 SIMULATION OPT : WATER   :Y  NITROGEN:Y  N-FIX:Y  PHOSPH :N  PESTS  :N         
                  PHOTO   :C  ET      :R  INFIL:S  HYDROL :R  SOM    :G         
                  CO2 353ppm  NSWIT   :1  EVAP :S  SOIL   :2  STEMP  :D         
 MANAGEMENT OPT : PLANTING:R  IRRIG   :A  FERT :D  RESIDUE:N  HARVEST:M         
                  WEATHER :M  TILLAGE :N                                        
                                                                                
*SUMMARY OF SOIL AND GENETIC INPUT PARAMETERS                                   
                                                                                
   SOIL LOWER UPPER   SAT  EXTR  INIT   ROOT   BULK     pH    NO3    NH4    ORG 
  DEPTH LIMIT LIMIT    SW    SW    SW   DIST   DENS                          C  
   cm   cm3/cm3    cm3/cm3    cm3/cm3         g/cm3         ugN/g  ugN/g     %  
------------------------------------------------------------------------------- 
  0-  5 0.215 0.440 0.484 0.225 0.282   1.00   1.05   0.40   5.00   1.50   4.64 
  5- 15 0.215 0.440 0.484 0.225 0.282   1.00   1.05   0.40   5.00   1.50   4.64 
 15- 30 0.215 0.440 0.484 0.225 0.282   1.00   1.05   0.40   5.00   1.50   4.64 
 30- 41 0.219 0.365 0.457 0.146 0.262   0.40   1.22   6.80   4.60   1.50   2.74 
 41- 53 0.219 0.365 0.457 0.146 0.262   0.40   1.22   6.80   4.60   1.50   2.74 
 53- 63 0.215 0.287 0.429 0.072 0.287   0.10   1.38   7.30   0.00   1.50   1.07 
 63- 74 0.215 0.287 0.429 0.072 0.287   0.10   1.38   7.30   0.00   1.50   1.07 
 74- 84 0.215 0.287 0.429 0.072 0.287   0.10   1.38   7.30   0.00   1.50   1.07 
 84-110 0.214 0.275 0.424 0.061 0.275   0.10   1.41   7.80   0.00   1.50   0.71 
110-125 0.209 0.312 0.438 0.103 0.312   0.00   1.44   8.00   0.00   1.50   0.35 
                                                                                
TOT-125  26.9  42.3  55.9  15.5  35.2  <--cm   -  kg/ha-->   28.7   24.1 302408 
SOIL ALBEDO    : 0.12      EVAPORATION LIMIT :10.00         MIN. FACTOR  : 1.00 
RUNOFF CURVE # : 0.75      DRAINAGE RATE     : 0.25         FERT. FACTOR : 1.00 
                                                                                
 Soybean    CULTIVAR :UY0141-GM 4 URUGUAY       ECOTYPE :INDETE                 
 CSDVAR :13.39  PPSEN  : 0.29  EMG-FLW:20.80  FLW-FSD:18.00  FSD-PHM : 36.00    
 WTPSD  :0.200  SDPDVR : 1.70  SDFDUR :26.00  PODDUR :10.00  XFRUIT  :  1.00    
 THRESH : 77.0  SDPRO  :0.405  SDLIP   : 0.205                                  


   PLANT COMPONENT  HARVEST     LOST*   TOTAL  BALANCE
   ---------------  -------- kg[N]/ha -------  -------
   Leaf N              1.08    21.73    22.81
   Stem N              7.20     3.71    10.91
   Shell N            18.38    26.14    44.53
   Seed N            184.77     0.00   184.77
   Root N              4.76     7.28    12.04
   Nodule N            1.33     4.22     5.55
   Total N           217.53    63.08   280.61
   N leakage                            15.83
   TOTAL N                                      296.45


   N INPUTS TO SYSTEM                kg[N]/ha
   ------------------                --------
   Seed N At Planting                    0.68
   N2 Fixed                            115.11
   N Uptake from Soil                  180.68
   TOTAL N                                      296.48

   * Lost due to senescence, freeze, pest or disease damage.

*******************************************************************************

*DSSAT Cropping System Model Ver. 4.6.1.000 -release      NOV 01, 2016; 12:29:55
                                                                                
*RUN   4        : UYSB                      CRGRO046 UYSB1029    1              
 MODEL          : CRGRO046 - Soybean                                            
 EXPERIMENT     : UYSB1029 SN late to create DSS                                
 DATA PATH      :                                                               
 TREATMENT  1   : UYSB                      CRGRO046                            
                                                                                
                                                                                
 CROP           : Soybean          CULTIVAR : GM 4 URUGUAY     ECOTYPE :INDETE  
 STARTING DATE  : OCT 30 1990                                                   
 PLANTING DATE  : NOV  2 1990        PLANTS/m2 :  7.0     ROW SPACING :  15.cm  
 WEATHER        : UYTA9001                                                      
 SOIL           : UYSS0N2002     TEXTURE : -99   -  N20-02    SNIA CLAY RISS    
 SOIL INITIAL C : DEPTH:125cm EXTR. H2O:154.7mm  NO3: 28.7kg/ha  NH4: 24.1kg/ha 
 WATER BALANCE  : AUTOMATIC IRRIGATION - REFILL PROFILE                         
 IRRIGATION     : AUTOMATIC - PLANTING -> MATURITY [ SOIL DEPTH: 0.30m 50.%]    
 NITROGEN BAL.  : SOIL-N, N-UPTAKE & DYNAMIC N-FIXATION SIMULATION              
 N-FERTILIZER   :       10 kg/ha IN     1 APPLICATIONS                          
 RESIDUE/MANURE : INITIAL :     0 kg/ha ;       0 kg/ha IN     0 APPLICATIONS   
 ENVIRONM. OPT. : DAYL=    0.00  SRAD=    0.00  TMAX=    0.00  TMIN=    0.00    
                  RAIN=    0.00  CO2 =    0.00  DEW =    0.00  WIND=    0.00    
 SIMULATION OPT : WATER   :Y  NITROGEN:Y  N-FIX:Y  PHOSPH :N  PESTS  :N         
                  PHOTO   :C  ET      :R  INFIL:S  HYDROL :R  SOM    :G         
                  CO2 355ppm  NSWIT   :1  EVAP :S  SOIL   :2  STEMP  :D         
 MANAGEMENT OPT : PLANTING:R  IRRIG   :A  FERT :D  RESIDUE:N  HARVEST:M         
                  WEATHER :M  TILLAGE :N                                        
                                                                                
*SUMMARY OF SOIL AND GENETIC INPUT PARAMETERS                                   
                                                                                
   SOIL LOWER UPPER   SAT  EXTR  INIT   ROOT   BULK     pH    NO3    NH4    ORG 
  DEPTH LIMIT LIMIT    SW    SW    SW   DIST   DENS                          C  
   cm   cm3/cm3    cm3/cm3    cm3/cm3         g/cm3         ugN/g  ugN/g     %  
------------------------------------------------------------------------------- 
  0-  5 0.215 0.440 0.484 0.225 0.282   1.00   1.05   0.40   5.00   1.50   4.64 
  5- 15 0.215 0.440 0.484 0.225 0.282   1.00   1.05   0.40   5.00   1.50   4.64 
 15- 30 0.215 0.440 0.484 0.225 0.282   1.00   1.05   0.40   5.00   1.50   4.64 
 30- 41 0.219 0.365 0.457 0.146 0.262   0.40   1.22   6.80   4.60   1.50   2.74 
 41- 53 0.219 0.365 0.457 0.146 0.262   0.40   1.22   6.80   4.60   1.50   2.74 
 53- 63 0.215 0.287 0.429 0.072 0.287   0.10   1.38   7.30   0.00   1.50   1.07 
 63- 74 0.215 0.287 0.429 0.072 0.287   0.10   1.38   7.30   0.00   1.50   1.07 
 74- 84 0.215 0.287 0.429 0.072 0.287   0.10   1.38   7.30   0.00   1.50   1.07 
 84-110 0.214 0.275 0.424 0.061 0.275   0.10   1.41   7.80   0.00   1.50   0.71 
110-125 0.209 0.312 0.438 0.103 0.312   0.00   1.44   8.00   0.00   1.50   0.35 
                                                                                
TOT-125  26.9  42.3  55.9  15.5  35.2  <--cm   -  kg/ha-->   28.7   24.1 302408 
SOIL ALBEDO    : 0.12      EVAPORATION LIMIT :10.00         MIN. FACTOR  : 1.00 
RUNOFF CURVE # : 0.75      DRAINAGE RATE     : 0.25         FERT. FACTOR : 1.00 
                                                                                
 Soybean    CULTIVAR :UY0141-GM 4 URUGUAY       ECOTYPE :INDETE                 
 CSDVAR :13.39  PPSEN  : 0.29  EMG-FLW:20.80  FLW-FSD:18.00  FSD-PHM : 36.00    
 WTPSD  :0.200  SDPDVR : 1.70  SDFDUR :26.00  PODDUR :10.00  XFRUIT  :  1.00    
 THRESH : 77.0  SDPRO  :0.405  SDLIP   : 0.205                                  


   PLANT COMPONENT  HARVEST     LOST*   TOTAL  BALANCE
   ---------------  -------- kg[N]/ha -------  -------
   Leaf N              1.25    23.70    24.95
   Stem N              7.93     4.04    11.97
   Shell N            22.62    28.38    51.00
   Seed N            207.66     0.00   207.66
   Root N              6.39     6.21    12.60
   Nodule N            2.46     3.96     6.41
   Total N           248.30    66.28   314.58
   N leakage                            23.05
   TOTAL N                                      337.63


   N INPUTS TO SYSTEM                kg[N]/ha
   ------------------                --------
   Seed N At Planting                    0.68
   N2 Fixed                            163.56
   N Uptake from Soil                  173.41
   TOTAL N                                      337.65

   * Lost due to senescence, freeze, pest or disease damage.

*******************************************************************************

*DSSAT Cropping System Model Ver. 4.6.1.000 -release      NOV 01, 2016; 12:29:55
                                                                                
*RUN   5        : UYSB                      CRGRO046 UYSB1029    1              
 MODEL          : CRGRO046 - Soybean                                            
 EXPERIMENT     : UYSB1029 SN late to create DSS                                
 DATA PATH      :                                                               
 TREATMENT  1   : UYSB                      CRGRO046                            
                                                                                
                                                                                
 CROP           : Soybean          CULTIVAR : GM 4 URUGUAY     ECOTYPE :INDETE  
 STARTING DATE  : OCT 30 1991                                                   
 PLANTING DATE  : NOV  2 1991        PLANTS/m2 :  7.0     ROW SPACING :  15.cm  
 WEATHER        : UYTA9101                                                      
 SOIL           : UYSS0N2002     TEXTURE : -99   -  N20-02    SNIA CLAY RISS    
 SOIL INITIAL C : DEPTH:125cm EXTR. H2O:154.7mm  NO3: 28.7kg/ha  NH4: 24.1kg/ha 
 WATER BALANCE  : AUTOMATIC IRRIGATION - REFILL PROFILE                         
 IRRIGATION     : AUTOMATIC - PLANTING -> MATURITY [ SOIL DEPTH: 0.30m 50.%]    
 NITROGEN BAL.  : SOIL-N, N-UPTAKE & DYNAMIC N-FIXATION SIMULATION              
 N-FERTILIZER   :       10 kg/ha IN     1 APPLICATIONS                          
 RESIDUE/MANURE : INITIAL :     0 kg/ha ;       0 kg/ha IN     0 APPLICATIONS   
 ENVIRONM. OPT. : DAYL=    0.00  SRAD=    0.00  TMAX=    0.00  TMIN=    0.00    
                  RAIN=    0.00  CO2 =    0.00  DEW =    0.00  WIND=    0.00    
 SIMULATION OPT : WATER   :Y  NITROGEN:Y  N-FIX:Y  PHOSPH :N  PESTS  :N         
                  PHOTO   :C  ET      :R  INFIL:S  HYDROL :R  SOM    :G         
                  CO2 356ppm  NSWIT   :1  EVAP :S  SOIL   :2  STEMP  :D         
 MANAGEMENT OPT : PLANTING:R  IRRIG   :A  FERT :D  RESIDUE:N  HARVEST:M         
                  WEATHER :M  TILLAGE :N                                        
                                                                                
*SUMMARY OF SOIL AND GENETIC INPUT PARAMETERS                                   
                                                                                
   SOIL LOWER UPPER   SAT  EXTR  INIT   ROOT   BULK     pH    NO3    NH4    ORG 
  DEPTH LIMIT LIMIT    SW    SW    SW   DIST   DENS                          C  
   cm   cm3/cm3    cm3/cm3    cm3/cm3         g/cm3         ugN/g  ugN/g     %  
------------------------------------------------------------------------------- 
  0-  5 0.215 0.440 0.484 0.225 0.282   1.00   1.05   0.40   5.00   1.50   4.64 
  5- 15 0.215 0.440 0.484 0.225 0.282   1.00   1.05   0.40   5.00   1.50   4.64 
 15- 30 0.215 0.440 0.484 0.225 0.282   1.00   1.05   0.40   5.00   1.50   4.64 
 30- 41 0.219 0.365 0.457 0.146 0.262   0.40   1.22   6.80   4.60   1.50   2.74 
 41- 53 0.219 0.365 0.457 0.146 0.262   0.40   1.22   6.80   4.60   1.50   2.74 
 53- 63 0.215 0.287 0.429 0.072 0.287   0.10   1.38   7.30   0.00   1.50   1.07 
 63- 74 0.215 0.287 0.429 0.072 0.287   0.10   1.38   7.30   0.00   1.50   1.07 
 74- 84 0.215 0.287 0.429 0.072 0.287   0.10   1.38   7.30   0.00   1.50   1.07 
 84-110 0.214 0.275 0.424 0.061 0.275   0.10   1.41   7.80   0.00   1.50   0.71 
110-125 0.209 0.312 0.438 0.103 0.312   0.00   1.44   8.00   0.00   1.50   0.35 
                                                                                
TOT-125  26.9  42.3  55.9  15.5  35.2  <--cm   -  kg/ha-->   28.7   24.1 302408 
SOIL ALBEDO    : 0.12      EVAPORATION LIMIT :10.00         MIN. FACTOR  : 1.00 
RUNOFF CURVE # : 0.75      DRAINAGE RATE     : 0.25         FERT. FACTOR : 1.00 
                                                                                
 Soybean    CULTIVAR :UY0141-GM 4 URUGUAY       ECOTYPE :INDETE                 
 CSDVAR :13.39  PPSEN  : 0.29  EMG-FLW:20.80  FLW-FSD:18.00  FSD-PHM : 36.00    
 WTPSD  :0.200  SDPDVR : 1.70  SDFDUR :26.00  PODDUR :10.00  XFRUIT  :  1.00    
 THRESH : 77.0  SDPRO  :0.405  SDLIP   : 0.205                                  


   PLANT COMPONENT  HARVEST     LOST*   TOTAL  BALANCE
   ---------------  -------- kg[N]/ha -------  -------
   Leaf N              0.97    19.61    20.57
   Stem N              6.36     3.32     9.68
   Shell N            16.58    20.07    36.65
   Seed N            200.28     0.00   200.28
   Root N              4.90     6.00    10.90
   Nodule N            1.82     3.24     5.06
   Total N           230.90    52.25   283.15
   N leakage                            17.25
   TOTAL N                                      300.40


   N INPUTS TO SYSTEM                kg[N]/ha
   ------------------                --------
   Seed N At Planting                    0.68
   N2 Fixed                            138.02
   N Uptake from Soil                  161.75
   TOTAL N                                      300.46

   * Lost due to senescence, freeze, pest or disease damage.

*******************************************************************************

*DSSAT Cropping System Model Ver. 4.6.1.000 -release      NOV 01, 2016; 12:29:55
                                                                                
*RUN   6        : UYSB                      CRGRO046 UYSB1029    1              
 MODEL          : CRGRO046 - Soybean                                            
 EXPERIMENT     : UYSB1029 SN late to create DSS                                
 DATA PATH      :                                                               
 TREATMENT  1   : UYSB                      CRGRO046                            
                                                                                
                                                                                
 CROP           : Soybean          CULTIVAR : GM 4 URUGUAY     ECOTYPE :INDETE  
 STARTING DATE  : OCT 29 1992                                                   
 PLANTING DATE  : NOV  1 1992        PLANTS/m2 :  7.0     ROW SPACING :  15.cm  
 WEATHER        : UYTA9201                                                      
 SOIL           : UYSS0N2002     TEXTURE : -99   -  N20-02    SNIA CLAY RISS    
 SOIL INITIAL C : DEPTH:125cm EXTR. H2O:154.7mm  NO3: 28.7kg/ha  NH4: 24.1kg/ha 
 WATER BALANCE  : AUTOMATIC IRRIGATION - REFILL PROFILE                         
 IRRIGATION     : AUTOMATIC - PLANTING -> MATURITY [ SOIL DEPTH: 0.30m 50.%]    
 NITROGEN BAL.  : SOIL-N, N-UPTAKE & DYNAMIC N-FIXATION SIMULATION              
 N-FERTILIZER   :       10 kg/ha IN     1 APPLICATIONS                          
 RESIDUE/MANURE : INITIAL :     0 kg/ha ;       0 kg/ha IN     0 APPLICATIONS   
 ENVIRONM. OPT. : DAYL=    0.00  SRAD=    0.00  TMAX=    0.00  TMIN=    0.00    
                  RAIN=    0.00  CO2 =    0.00  DEW =    0.00  WIND=    0.00    
 SIMULATION OPT : WATER   :Y  NITROGEN:Y  N-FIX:Y  PHOSPH :N  PESTS  :N         
                  PHOTO   :C  ET      :R  INFIL:S  HYDROL :R  SOM    :G         
                  CO2 356ppm  NSWIT   :1  EVAP :S  SOIL   :2  STEMP  :D         
 MANAGEMENT OPT : PLANTING:R  IRRIG   :A  FERT :D  RESIDUE:N  HARVEST:M         
                  WEATHER :M  TILLAGE :N                                        
                                                                                
*SUMMARY OF SOIL AND GENETIC INPUT PARAMETERS                                   
                                                                                
   SOIL LOWER UPPER   SAT  EXTR  INIT   ROOT   BULK     pH    NO3    NH4    ORG 
  DEPTH LIMIT LIMIT    SW    SW    SW   DIST   DENS                          C  
   cm   cm3/cm3    cm3/cm3    cm3/cm3         g/cm3         ugN/g  ugN/g     %  
------------------------------------------------------------------------------- 
  0-  5 0.215 0.440 0.484 0.225 0.282   1.00   1.05   0.40   5.00   1.50   4.64 
  5- 15 0.215 0.440 0.484 0.225 0.282   1.00   1.05   0.40   5.00   1.50   4.64 
 15- 30 0.215 0.440 0.484 0.225 0.282   1.00   1.05   0.40   5.00   1.50   4.64 
 30- 41 0.219 0.365 0.457 0.146 0.262   0.40   1.22   6.80   4.60   1.50   2.74 
 41- 53 0.219 0.365 0.457 0.146 0.262   0.40   1.22   6.80   4.60   1.50   2.74 
 53- 63 0.215 0.287 0.429 0.072 0.287   0.10   1.38   7.30   0.00   1.50   1.07 
 63- 74 0.215 0.287 0.429 0.072 0.287   0.10   1.38   7.30   0.00   1.50   1.07 
 74- 84 0.215 0.287 0.429 0.072 0.287   0.10   1.38   7.30   0.00   1.50   1.07 
 84-110 0.214 0.275 0.424 0.061 0.275   0.10   1.41   7.80   0.00   1.50   0.71 
110-125 0.209 0.312 0.438 0.103 0.312   0.00   1.44   8.00   0.00   1.50   0.35 
                                                                                
TOT-125  26.9  42.3  55.9  15.5  35.2  <--cm   -  kg/ha-->   28.7   24.1 302408 
SOIL ALBEDO    : 0.12      EVAPORATION LIMIT :10.00         MIN. FACTOR  : 1.00 
RUNOFF CURVE # : 0.75      DRAINAGE RATE     : 0.25         FERT. FACTOR : 1.00 
                                                                                
 Soybean    CULTIVAR :UY0141-GM 4 URUGUAY       ECOTYPE :INDETE                 
 CSDVAR :13.39  PPSEN  : 0.29  EMG-FLW:20.80  FLW-FSD:18.00  FSD-PHM : 36.00    
 WTPSD  :0.200  SDPDVR : 1.70  SDFDUR :26.00  PODDUR :10.00  XFRUIT  :  1.00    
 THRESH : 77.0  SDPRO  :0.405  SDLIP   : 0.205                                  


   PLANT COMPONENT  HARVEST     LOST*   TOTAL  BALANCE
   ---------------  -------- kg[N]/ha -------  -------
   Leaf N              0.98    19.90    20.87
   Stem N              6.32     3.37     9.70
   Shell N            18.83    18.57    37.40
   Seed N            228.37     0.00   228.37
   Root N              5.06     6.05    11.11
   Nodule N            2.58     3.27     5.86
   Total N           262.15    51.16   313.31
   N leakage                            15.87
   TOTAL N                                      329.18


   N INPUTS TO SYSTEM                kg[N]/ha
   ------------------                --------
   Seed N At Planting                    0.68
   N2 Fixed                            147.04
   N Uptake from Soil                  181.49
   TOTAL N                                      329.21

   * Lost due to senescence, freeze, pest or disease damage.

*******************************************************************************

*DSSAT Cropping System Model Ver. 4.6.1.000 -release      NOV 01, 2016; 12:29:55
                                                                                
*RUN   7        : UYSB                      CRGRO046 UYSB1029    1              
 MODEL          : CRGRO046 - Soybean                                            
 EXPERIMENT     : UYSB1029 SN late to create DSS                                
 DATA PATH      :                                                               
 TREATMENT  1   : UYSB                      CRGRO046                            
                                                                                
                                                                                
 CROP           : Soybean          CULTIVAR : GM 4 URUGUAY     ECOTYPE :INDETE  
 STARTING DATE  : OCT 30 1993                                                   
 PLANTING DATE  : NOV  2 1993        PLANTS/m2 :  7.0     ROW SPACING :  15.cm  
 WEATHER        : UYTA9301                                                      
 SOIL           : UYSS0N2002     TEXTURE : -99   -  N20-02    SNIA CLAY RISS    
 SOIL INITIAL C : DEPTH:125cm EXTR. H2O:154.7mm  NO3: 28.7kg/ha  NH4: 24.1kg/ha 
 WATER BALANCE  : AUTOMATIC IRRIGATION - REFILL PROFILE                         
 IRRIGATION     : AUTOMATIC - PLANTING -> MATURITY [ SOIL DEPTH: 0.30m 50.%]    
 NITROGEN BAL.  : SOIL-N, N-UPTAKE & DYNAMIC N-FIXATION SIMULATION              
 N-FERTILIZER   :       10 kg/ha IN     1 APPLICATIONS                          
 RESIDUE/MANURE : INITIAL :     0 kg/ha ;       0 kg/ha IN     0 APPLICATIONS   
 ENVIRONM. OPT. : DAYL=    0.00  SRAD=    0.00  TMAX=    0.00  TMIN=    0.00    
                  RAIN=    0.00  CO2 =    0.00  DEW =    0.00  WIND=    0.00    
 SIMULATION OPT : WATER   :Y  NITROGEN:Y  N-FIX:Y  PHOSPH :N  PESTS  :N         
                  PHOTO   :C  ET      :R  INFIL:S  HYDROL :R  SOM    :G         
                  CO2 357ppm  NSWIT   :1  EVAP :S  SOIL   :2  STEMP  :D         
 MANAGEMENT OPT : PLANTING:R  IRRIG   :A  FERT :D  RESIDUE:N  HARVEST:M         
                  WEATHER :M  TILLAGE :N                                        
                                                                                
*SUMMARY OF SOIL AND GENETIC INPUT PARAMETERS                                   
                                                                                
   SOIL LOWER UPPER   SAT  EXTR  INIT   ROOT   BULK     pH    NO3    NH4    ORG 
  DEPTH LIMIT LIMIT    SW    SW    SW   DIST   DENS                          C  
   cm   cm3/cm3    cm3/cm3    cm3/cm3         g/cm3         ugN/g  ugN/g     %  
------------------------------------------------------------------------------- 
  0-  5 0.215 0.440 0.484 0.225 0.282   1.00   1.05   0.40   5.00   1.50   4.64 
  5- 15 0.215 0.440 0.484 0.225 0.282   1.00   1.05   0.40   5.00   1.50   4.64 
 15- 30 0.215 0.440 0.484 0.225 0.282   1.00   1.05   0.40   5.00   1.50   4.64 
 30- 41 0.219 0.365 0.457 0.146 0.262   0.40   1.22   6.80   4.60   1.50   2.74 
 41- 53 0.219 0.365 0.457 0.146 0.262   0.40   1.22   6.80   4.60   1.50   2.74 
 53- 63 0.215 0.287 0.429 0.072 0.287   0.10   1.38   7.30   0.00   1.50   1.07 
 63- 74 0.215 0.287 0.429 0.072 0.287   0.10   1.38   7.30   0.00   1.50   1.07 
 74- 84 0.215 0.287 0.429 0.072 0.287   0.10   1.38   7.30   0.00   1.50   1.07 
 84-110 0.214 0.275 0.424 0.061 0.275   0.10   1.41   7.80   0.00   1.50   0.71 
110-125 0.209 0.312 0.438 0.103 0.312   0.00   1.44   8.00   0.00   1.50   0.35 
                                                                                
TOT-125  26.9  42.3  55.9  15.5  35.2  <--cm   -  kg/ha-->   28.7   24.1 302408 
SOIL ALBEDO    : 0.12      EVAPORATION LIMIT :10.00         MIN. FACTOR  : 1.00 
RUNOFF CURVE # : 0.75      DRAINAGE RATE     : 0.25         FERT. FACTOR : 1.00 
                                                                                
 Soybean    CULTIVAR :UY0141-GM 4 URUGUAY       ECOTYPE :INDETE                 
 CSDVAR :13.39  PPSEN  : 0.29  EMG-FLW:20.80  FLW-FSD:18.00  FSD-PHM : 36.00    
 WTPSD  :0.200  SDPDVR : 1.70  SDFDUR :26.00  PODDUR :10.00  XFRUIT  :  1.00    
 THRESH : 77.0  SDPRO  :0.405  SDLIP   : 0.205                                  


   PLANT COMPONENT  HARVEST     LOST*   TOTAL  BALANCE
   ---------------  -------- kg[N]/ha -------  -------
   Leaf N              1.15    22.94    24.09
   Stem N              7.47     3.93    11.40
   Shell N            19.14    22.02    41.16
   Seed N            205.04     0.00   205.04
   Root N              6.24     6.04    12.28
   Nodule N            2.07     3.67     5.74
   Total N           241.11    58.59   299.70
   N leakage                            17.80
   TOTAL N                                      317.50


   N INPUTS TO SYSTEM                kg[N]/ha
   ------------------                --------
   Seed N At Planting                    0.68
   N2 Fixed                            134.82
   N Uptake from Soil                  182.02
   TOTAL N                                      317.52

   * Lost due to senescence, freeze, pest or disease damage.

*******************************************************************************

*DSSAT Cropping System Model Ver. 4.6.1.000 -release      NOV 01, 2016; 12:29:55
                                                                                
*RUN   8        : UYSB                      CRGRO046 UYSB1029    1              
 MODEL          : CRGRO046 - Soybean                                            
 EXPERIMENT     : UYSB1029 SN late to create DSS                                
 DATA PATH      :                                                               
 TREATMENT  1   : UYSB                      CRGRO046                            
                                                                                
                                                                                
 CROP           : Soybean          CULTIVAR : GM 4 URUGUAY     ECOTYPE :INDETE  
 STARTING DATE  : OCT 30 1994                                                   
 PLANTING DATE  : NOV  2 1994        PLANTS/m2 :  7.0     ROW SPACING :  15.cm  
 WEATHER        : UYTA9401                                                      
 SOIL           : UYSS0N2002     TEXTURE : -99   -  N20-02    SNIA CLAY RISS    
 SOIL INITIAL C : DEPTH:125cm EXTR. H2O:154.7mm  NO3: 28.7kg/ha  NH4: 24.1kg/ha 
 WATER BALANCE  : AUTOMATIC IRRIGATION - REFILL PROFILE                         
 IRRIGATION     : AUTOMATIC - PLANTING -> MATURITY [ SOIL DEPTH: 0.30m 50.%]    
 NITROGEN BAL.  : SOIL-N, N-UPTAKE & DYNAMIC N-FIXATION SIMULATION              
 N-FERTILIZER   :       10 kg/ha IN     1 APPLICATIONS                          
 RESIDUE/MANURE : INITIAL :     0 kg/ha ;       0 kg/ha IN     0 APPLICATIONS   
 ENVIRONM. OPT. : DAYL=    0.00  SRAD=    0.00  TMAX=    0.00  TMIN=    0.00    
                  RAIN=    0.00  CO2 =    0.00  DEW =    0.00  WIND=    0.00    
 SIMULATION OPT : WATER   :Y  NITROGEN:Y  N-FIX:Y  PHOSPH :N  PESTS  :N         
                  PHOTO   :C  ET      :R  INFIL:S  HYDROL :R  SOM    :G         
                  CO2 359ppm  NSWIT   :1  EVAP :S  SOIL   :2  STEMP  :D         
 MANAGEMENT OPT : PLANTING:R  IRRIG   :A  FERT :D  RESIDUE:N  HARVEST:M         
                  WEATHER :M  TILLAGE :N                                        
                                                                                
*SUMMARY OF SOIL AND GENETIC INPUT PARAMETERS                                   
                                                                                
   SOIL LOWER UPPER   SAT  EXTR  INIT   ROOT   BULK     pH    NO3    NH4    ORG 
  DEPTH LIMIT LIMIT    SW    SW    SW   DIST   DENS                          C  
   cm   cm3/cm3    cm3/cm3    cm3/cm3         g/cm3         ugN/g  ugN/g     %  
------------------------------------------------------------------------------- 
  0-  5 0.215 0.440 0.484 0.225 0.282   1.00   1.05   0.40   5.00   1.50   4.64 
  5- 15 0.215 0.440 0.484 0.225 0.282   1.00   1.05   0.40   5.00   1.50   4.64 
 15- 30 0.215 0.440 0.484 0.225 0.282   1.00   1.05   0.40   5.00   1.50   4.64 
 30- 41 0.219 0.365 0.457 0.146 0.262   0.40   1.22   6.80   4.60   1.50   2.74 
 41- 53 0.219 0.365 0.457 0.146 0.262   0.40   1.22   6.80   4.60   1.50   2.74 
 53- 63 0.215 0.287 0.429 0.072 0.287   0.10   1.38   7.30   0.00   1.50   1.07 
 63- 74 0.215 0.287 0.429 0.072 0.287   0.10   1.38   7.30   0.00   1.50   1.07 
 74- 84 0.215 0.287 0.429 0.072 0.287   0.10   1.38   7.30   0.00   1.50   1.07 
 84-110 0.214 0.275 0.424 0.061 0.275   0.10   1.41   7.80   0.00   1.50   0.71 
110-125 0.209 0.312 0.438 0.103 0.312   0.00   1.44   8.00   0.00   1.50   0.35 
                                                                                
TOT-125  26.9  42.3  55.9  15.5  35.2  <--cm   -  kg/ha-->   28.7   24.1 302408 
SOIL ALBEDO    : 0.12      EVAPORATION LIMIT :10.00         MIN. FACTOR  : 1.00 
RUNOFF CURVE # : 0.75      DRAINAGE RATE     : 0.25         FERT. FACTOR : 1.00 
                                                                                
 Soybean    CULTIVAR :UY0141-GM 4 URUGUAY       ECOTYPE :INDETE                 
 CSDVAR :13.39  PPSEN  : 0.29  EMG-FLW:20.80  FLW-FSD:18.00  FSD-PHM : 36.00    
 WTPSD  :0.200  SDPDVR : 1.70  SDFDUR :26.00  PODDUR :10.00  XFRUIT  :  1.00    
 THRESH : 77.0  SDPRO  :0.405  SDLIP   : 0.205                                  


   PLANT COMPONENT  HARVEST     LOST*   TOTAL  BALANCE
   ---------------  -------- kg[N]/ha -------  -------
   Leaf N              1.00    19.55    20.55
   Stem N              6.11     3.35     9.46
   Shell N            20.61    25.89    46.50
   Seed N            214.47     0.00   214.47
   Root N              4.85     6.06    10.92
   Nodule N            2.58     3.80     6.37
   Total N           249.63    58.64   308.27
   N leakage                            16.23
   TOTAL N                                      324.50


   N INPUTS TO SYSTEM                kg[N]/ha
   ------------------                --------
   Seed N At Planting                    0.68
   N2 Fixed                            185.46
   N Uptake from Soil                  138.38
   TOTAL N                                      324.52

   * Lost due to senescence, freeze, pest or disease damage.

*******************************************************************************

*DSSAT Cropping System Model Ver. 4.6.1.000 -release      NOV 01, 2016; 12:29:55
                                                                                
*RUN   9        : UYSB                      CRGRO046 UYSB1029    1              
 MODEL          : CRGRO046 - Soybean                                            
 EXPERIMENT     : UYSB1029 SN late to create DSS                                
 DATA PATH      :                                                               
 TREATMENT  1   : UYSB                      CRGRO046                            
                                                                                
                                                                                
 CROP           : Soybean          CULTIVAR : GM 4 URUGUAY     ECOTYPE :INDETE  
 STARTING DATE  : OCT 30 1995                                                   
 PLANTING DATE  : NOV  2 1995        PLANTS/m2 :  7.0     ROW SPACING :  15.cm  
 WEATHER        : UYTA9501                                                      
 SOIL           : UYSS0N2002     TEXTURE : -99   -  N20-02    SNIA CLAY RISS    
 SOIL INITIAL C : DEPTH:125cm EXTR. H2O:154.7mm  NO3: 28.7kg/ha  NH4: 24.1kg/ha 
 WATER BALANCE  : AUTOMATIC IRRIGATION - REFILL PROFILE                         
 IRRIGATION     : AUTOMATIC - PLANTING -> MATURITY [ SOIL DEPTH: 0.30m 50.%]    
 NITROGEN BAL.  : SOIL-N, N-UPTAKE & DYNAMIC N-FIXATION SIMULATION              
 N-FERTILIZER   :       10 kg/ha IN     1 APPLICATIONS                          
 RESIDUE/MANURE : INITIAL :     0 kg/ha ;       0 kg/ha IN     0 APPLICATIONS   
 ENVIRONM. OPT. : DAYL=    0.00  SRAD=    0.00  TMAX=    0.00  TMIN=    0.00    
                  RAIN=    0.00  CO2 =    0.00  DEW =    0.00  WIND=    0.00    
 SIMULATION OPT : WATER   :Y  NITROGEN:Y  N-FIX:Y  PHOSPH :N  PESTS  :N         
                  PHOTO   :C  ET      :R  INFIL:S  HYDROL :R  SOM    :G         
                  CO2 361ppm  NSWIT   :1  EVAP :S  SOIL   :2  STEMP  :D         
 MANAGEMENT OPT : PLANTING:R  IRRIG   :A  FERT :D  RESIDUE:N  HARVEST:M         
                  WEATHER :M  TILLAGE :N                                        
                                                                                
*SUMMARY OF SOIL AND GENETIC INPUT PARAMETERS                                   
                                                                                
   SOIL LOWER UPPER   SAT  EXTR  INIT   ROOT   BULK     pH    NO3    NH4    ORG 
  DEPTH LIMIT LIMIT    SW    SW    SW   DIST   DENS                          C  
   cm   cm3/cm3    cm3/cm3    cm3/cm3         g/cm3         ugN/g  ugN/g     %  
------------------------------------------------------------------------------- 
  0-  5 0.215 0.440 0.484 0.225 0.282   1.00   1.05   0.40   5.00   1.50   4.64 
  5- 15 0.215 0.440 0.484 0.225 0.282   1.00   1.05   0.40   5.00   1.50   4.64 
 15- 30 0.215 0.440 0.484 0.225 0.282   1.00   1.05   0.40   5.00   1.50   4.64 
 30- 41 0.219 0.365 0.457 0.146 0.262   0.40   1.22   6.80   4.60   1.50   2.74 
 41- 53 0.219 0.365 0.457 0.146 0.262   0.40   1.22   6.80   4.60   1.50   2.74 
 53- 63 0.215 0.287 0.429 0.072 0.287   0.10   1.38   7.30   0.00   1.50   1.07 
 63- 74 0.215 0.287 0.429 0.072 0.287   0.10   1.38   7.30   0.00   1.50   1.07 
 74- 84 0.215 0.287 0.429 0.072 0.287   0.10   1.38   7.30   0.00   1.50   1.07 
 84-110 0.214 0.275 0.424 0.061 0.275   0.10   1.41   7.80   0.00   1.50   0.71 
110-125 0.209 0.312 0.438 0.103 0.312   0.00   1.44   8.00   0.00   1.50   0.35 
                                                                                
TOT-125  26.9  42.3  55.9  15.5  35.2  <--cm   -  kg/ha-->   28.7   24.1 302408 
SOIL ALBEDO    : 0.12      EVAPORATION LIMIT :10.00         MIN. FACTOR  : 1.00 
RUNOFF CURVE # : 0.75      DRAINAGE RATE     : 0.25         FERT. FACTOR : 1.00 
                                                                                
 Soybean    CULTIVAR :UY0141-GM 4 URUGUAY       ECOTYPE :INDETE                 
 CSDVAR :13.39  PPSEN  : 0.29  EMG-FLW:20.80  FLW-FSD:18.00  FSD-PHM : 36.00    
 WTPSD  :0.200  SDPDVR : 1.70  SDFDUR :26.00  PODDUR :10.00  XFRUIT  :  1.00    
 THRESH : 77.0  SDPRO  :0.405  SDLIP   : 0.205                                  


   PLANT COMPONENT  HARVEST     LOST*   TOTAL  BALANCE
   ---------------  -------- kg[N]/ha -------  -------
   Leaf N              1.21    23.68    24.89
   Stem N              7.36     4.04    11.40
   Shell N            19.59    21.26    40.85
   Seed N            235.17     0.00   235.17
   Root N              5.99     7.16    13.15
   Nodule N            2.69     3.62     6.31
   Total N           272.01    59.76   331.77
   N leakage                            19.62
   TOTAL N                                      351.39


   N INPUTS TO SYSTEM                kg[N]/ha
   ------------------                --------
   Seed N At Planting                    0.68
   N2 Fixed                            168.31
   N Uptake from Soil                  182.42
   TOTAL N                                      351.41

   * Lost due to senescence, freeze, pest or disease damage.

*******************************************************************************

*DSSAT Cropping System Model Ver. 4.6.1.000 -release      NOV 01, 2016; 12:29:55
                                                                                
*RUN  10        : UYSB                      CRGRO046 UYSB1029    1              
 MODEL          : CRGRO046 - Soybean                                            
 EXPERIMENT     : UYSB1029 SN late to create DSS                                
 DATA PATH      :                                                               
 TREATMENT  1   : UYSB                      CRGRO046                            
                                                                                
                                                                                
 CROP           : Soybean          CULTIVAR : GM 4 URUGUAY     ECOTYPE :INDETE  
 STARTING DATE  : OCT 29 1996                                                   
 PLANTING DATE  : NOV  1 1996        PLANTS/m2 :  7.0     ROW SPACING :  15.cm  
 WEATHER        : UYTA9601                                                      
 SOIL           : UYSS0N2002     TEXTURE : -99   -  N20-02    SNIA CLAY RISS    
 SOIL INITIAL C : DEPTH:125cm EXTR. H2O:154.7mm  NO3: 28.7kg/ha  NH4: 24.1kg/ha 
 WATER BALANCE  : AUTOMATIC IRRIGATION - REFILL PROFILE                         
 IRRIGATION     : AUTOMATIC - PLANTING -> MATURITY [ SOIL DEPTH: 0.30m 50.%]    
 NITROGEN BAL.  : SOIL-N, N-UPTAKE & DYNAMIC N-FIXATION SIMULATION              
 N-FERTILIZER   :       10 kg/ha IN     1 APPLICATIONS                          
 RESIDUE/MANURE : INITIAL :     0 kg/ha ;       0 kg/ha IN     0 APPLICATIONS   
 ENVIRONM. OPT. : DAYL=    0.00  SRAD=    0.00  TMAX=    0.00  TMIN=    0.00    
                  RAIN=    0.00  CO2 =    0.00  DEW =    0.00  WIND=    0.00    
 SIMULATION OPT : WATER   :Y  NITROGEN:Y  N-FIX:Y  PHOSPH :N  PESTS  :N         
                  PHOTO   :C  ET      :R  INFIL:S  HYDROL :R  SOM    :G         
                  CO2 363ppm  NSWIT   :1  EVAP :S  SOIL   :2  STEMP  :D         
 MANAGEMENT OPT : PLANTING:R  IRRIG   :A  FERT :D  RESIDUE:N  HARVEST:M         
                  WEATHER :M  TILLAGE :N                                        
                                                                                
*SUMMARY OF SOIL AND GENETIC INPUT PARAMETERS                                   
                                                                                
   SOIL LOWER UPPER   SAT  EXTR  INIT   ROOT   BULK     pH    NO3    NH4    ORG 
  DEPTH LIMIT LIMIT    SW    SW    SW   DIST   DENS                          C  
   cm   cm3/cm3    cm3/cm3    cm3/cm3         g/cm3         ugN/g  ugN/g     %  
------------------------------------------------------------------------------- 
  0-  5 0.215 0.440 0.484 0.225 0.282   1.00   1.05   0.40   5.00   1.50   4.64 
  5- 15 0.215 0.440 0.484 0.225 0.282   1.00   1.05   0.40   5.00   1.50   4.64 
 15- 30 0.215 0.440 0.484 0.225 0.282   1.00   1.05   0.40   5.00   1.50   4.64 
 30- 41 0.219 0.365 0.457 0.146 0.262   0.40   1.22   6.80   4.60   1.50   2.74 
 41- 53 0.219 0.365 0.457 0.146 0.262   0.40   1.22   6.80   4.60   1.50   2.74 
 53- 63 0.215 0.287 0.429 0.072 0.287   0.10   1.38   7.30   0.00   1.50   1.07 
 63- 74 0.215 0.287 0.429 0.072 0.287   0.10   1.38   7.30   0.00   1.50   1.07 
 74- 84 0.215 0.287 0.429 0.072 0.287   0.10   1.38   7.30   0.00   1.50   1.07 
 84-110 0.214 0.275 0.424 0.061 0.275   0.10   1.41   7.80   0.00   1.50   0.71 
110-125 0.209 0.312 0.438 0.103 0.312   0.00   1.44   8.00   0.00   1.50   0.35 
                                                                                
TOT-125  26.9  42.3  55.9  15.5  35.2  <--cm   -  kg/ha-->   28.7   24.1 302408 
SOIL ALBEDO    : 0.12      EVAPORATION LIMIT :10.00         MIN. FACTOR  : 1.00 
RUNOFF CURVE # : 0.75      DRAINAGE RATE     : 0.25         FERT. FACTOR : 1.00 
                                                                                
 Soybean    CULTIVAR :UY0141-GM 4 URUGUAY       ECOTYPE :INDETE                 
 CSDVAR :13.39  PPSEN  : 0.29  EMG-FLW:20.80  FLW-FSD:18.00  FSD-PHM : 36.00    
 WTPSD  :0.200  SDPDVR : 1.70  SDFDUR :26.00  PODDUR :10.00  XFRUIT  :  1.00    
 THRESH : 77.0  SDPRO  :0.405  SDLIP   : 0.205                                  


   PLANT COMPONENT  HARVEST     LOST*   TOTAL  BALANCE
   ---------------  -------- kg[N]/ha -------  -------
   Leaf N              1.11    21.68    22.80
   Stem N              6.93     3.74    10.67
   Shell N            20.91    23.38    44.29
   Seed N            214.40     0.00   214.40
   Root N              5.28     6.49    11.77
   Nodule N            1.58     5.05     6.63
   Total N           250.21    60.35   310.56
   N leakage                            20.34
   TOTAL N                                      330.90


   N INPUTS TO SYSTEM                kg[N]/ha
   ------------------                --------
   Seed N At Planting                    0.68
   N2 Fixed                            152.23
   N Uptake from Soil                  178.01
   TOTAL N                                      330.92

   * Lost due to senescence, freeze, pest or disease damage.

*******************************************************************************

*DSSAT Cropping System Model Ver. 4.6.1.000 -release      NOV 01, 2016; 12:29:55
                                                                                
*RUN  11        : UYSB                      CRGRO046 UYSB1029    1              
 MODEL          : CRGRO046 - Soybean                                            
 EXPERIMENT     : UYSB1029 SN late to create DSS                                
 DATA PATH      :                                                               
 TREATMENT  1   : UYSB                      CRGRO046                            
                                                                                
                                                                                
 CROP           : Soybean          CULTIVAR : GM 4 URUGUAY     ECOTYPE :INDETE  
 STARTING DATE  : OCT 30 1997                                                   
 PLANTING DATE  : NOV  2 1997        PLANTS/m2 :  7.0     ROW SPACING :  15.cm  
 WEATHER        : UYTA9701                                                      
 SOIL           : UYSS0N2002     TEXTURE : -99   -  N20-02    SNIA CLAY RISS    
 SOIL INITIAL C : DEPTH:125cm EXTR. H2O:154.7mm  NO3: 28.7kg/ha  NH4: 24.1kg/ha 
 WATER BALANCE  : AUTOMATIC IRRIGATION - REFILL PROFILE                         
 IRRIGATION     : AUTOMATIC - PLANTING -> MATURITY [ SOIL DEPTH: 0.30m 50.%]    
 NITROGEN BAL.  : SOIL-N, N-UPTAKE & DYNAMIC N-FIXATION SIMULATION              
 N-FERTILIZER   :       10 kg/ha IN     1 APPLICATIONS                          
 RESIDUE/MANURE : INITIAL :     0 kg/ha ;       0 kg/ha IN     0 APPLICATIONS   
 ENVIRONM. OPT. : DAYL=    0.00  SRAD=    0.00  TMAX=    0.00  TMIN=    0.00    
                  RAIN=    0.00  CO2 =    0.00  DEW =    0.00  WIND=    0.00    
 SIMULATION OPT : WATER   :Y  NITROGEN:Y  N-FIX:Y  PHOSPH :N  PESTS  :N         
                  PHOTO   :C  ET      :R  INFIL:S  HYDROL :R  SOM    :G         
                  CO2 364ppm  NSWIT   :1  EVAP :S  SOIL   :2  STEMP  :D         
 MANAGEMENT OPT : PLANTING:R  IRRIG   :A  FERT :D  RESIDUE:N  HARVEST:M         
                  WEATHER :M  TILLAGE :N                                        
                                                                                
*SUMMARY OF SOIL AND GENETIC INPUT PARAMETERS                                   
                                                                                
   SOIL LOWER UPPER   SAT  EXTR  INIT   ROOT   BULK     pH    NO3    NH4    ORG 
  DEPTH LIMIT LIMIT    SW    SW    SW   DIST   DENS                          C  
   cm   cm3/cm3    cm3/cm3    cm3/cm3         g/cm3         ugN/g  ugN/g     %  
------------------------------------------------------------------------------- 
  0-  5 0.215 0.440 0.484 0.225 0.282   1.00   1.05   0.40   5.00   1.50   4.64 
  5- 15 0.215 0.440 0.484 0.225 0.282   1.00   1.05   0.40   5.00   1.50   4.64 
 15- 30 0.215 0.440 0.484 0.225 0.282   1.00   1.05   0.40   5.00   1.50   4.64 
 30- 41 0.219 0.365 0.457 0.146 0.262   0.40   1.22   6.80   4.60   1.50   2.74 
 41- 53 0.219 0.365 0.457 0.146 0.262   0.40   1.22   6.80   4.60   1.50   2.74 
 53- 63 0.215 0.287 0.429 0.072 0.287   0.10   1.38   7.30   0.00   1.50   1.07 
 63- 74 0.215 0.287 0.429 0.072 0.287   0.10   1.38   7.30   0.00   1.50   1.07 
 74- 84 0.215 0.287 0.429 0.072 0.287   0.10   1.38   7.30   0.00   1.50   1.07 
 84-110 0.214 0.275 0.424 0.061 0.275   0.10   1.41   7.80   0.00   1.50   0.71 
110-125 0.209 0.312 0.438 0.103 0.312   0.00   1.44   8.00   0.00   1.50   0.35 
                                                                                
TOT-125  26.9  42.3  55.9  15.5  35.2  <--cm   -  kg/ha-->   28.7   24.1 302408 
SOIL ALBEDO    : 0.12      EVAPORATION LIMIT :10.00         MIN. FACTOR  : 1.00 
RUNOFF CURVE # : 0.75      DRAINAGE RATE     : 0.25         FERT. FACTOR : 1.00 
                                                                                
 Soybean    CULTIVAR :UY0141-GM 4 URUGUAY       ECOTYPE :INDETE                 
 CSDVAR :13.39  PPSEN  : 0.29  EMG-FLW:20.80  FLW-FSD:18.00  FSD-PHM : 36.00    
 WTPSD  :0.200  SDPDVR : 1.70  SDFDUR :26.00  PODDUR :10.00  XFRUIT  :  1.00    
 THRESH : 77.0  SDPRO  :0.405  SDLIP   : 0.205                                  


   PLANT COMPONENT  HARVEST     LOST*   TOTAL  BALANCE
   ---------------  -------- kg[N]/ha -------  -------
   Leaf N              0.92    18.16    19.08
   Stem N              5.96     3.05     9.02
   Shell N            15.76    19.30    35.06
   Seed N            194.93     0.00   194.93
   Root N              3.88     6.68    10.56
   Nodule N            1.78     3.50     5.27
   Total N           223.24    50.69   273.93
   N leakage                            12.27
   TOTAL N                                      286.19


   N INPUTS TO SYSTEM                kg[N]/ha
   ------------------                --------
   Seed N At Planting                    0.68
   N2 Fixed                            121.52
   N Uptake from Soil                  164.01
   TOTAL N                                      286.21

   * Lost due to senescence, freeze, pest or disease damage.

*******************************************************************************

*DSSAT Cropping System Model Ver. 4.6.1.000 -release      NOV 01, 2016; 12:29:55
                                                                                
*RUN  12        : UYSB                      CRGRO046 UYSB1029    1              
 MODEL          : CRGRO046 - Soybean                                            
 EXPERIMENT     : UYSB1029 SN late to create DSS                                
 DATA PATH      :                                                               
 TREATMENT  1   : UYSB                      CRGRO046                            
                                                                                
                                                                                
 CROP           : Soybean          CULTIVAR : GM 4 URUGUAY     ECOTYPE :INDETE  
 STARTING DATE  : OCT 30 1998                                                   
 PLANTING DATE  : NOV  2 1998        PLANTS/m2 :  7.0     ROW SPACING :  15.cm  
 WEATHER        : UYTA9801                                                      
 SOIL           : UYSS0N2002     TEXTURE : -99   -  N20-02    SNIA CLAY RISS    
 SOIL INITIAL C : DEPTH:125cm EXTR. H2O:154.7mm  NO3: 28.7kg/ha  NH4: 24.1kg/ha 
 WATER BALANCE  : AUTOMATIC IRRIGATION - REFILL PROFILE                         
 IRRIGATION     : AUTOMATIC - PLANTING -> MATURITY [ SOIL DEPTH: 0.30m 50.%]    
 NITROGEN BAL.  : SOIL-N, N-UPTAKE & DYNAMIC N-FIXATION SIMULATION              
 N-FERTILIZER   :       10 kg/ha IN     1 APPLICATIONS                          
 RESIDUE/MANURE : INITIAL :     0 kg/ha ;       0 kg/ha IN     0 APPLICATIONS   
 ENVIRONM. OPT. : DAYL=    0.00  SRAD=    0.00  TMAX=    0.00  TMIN=    0.00    
                  RAIN=    0.00  CO2 =    0.00  DEW =    0.00  WIND=    0.00    
 SIMULATION OPT : WATER   :Y  NITROGEN:Y  N-FIX:Y  PHOSPH :N  PESTS  :N         
                  PHOTO   :C  ET      :R  INFIL:S  HYDROL :R  SOM    :G         
                  CO2 367ppm  NSWIT   :1  EVAP :S  SOIL   :2  STEMP  :D         
 MANAGEMENT OPT : PLANTING:R  IRRIG   :A  FERT :D  RESIDUE:N  HARVEST:M         
                  WEATHER :M  TILLAGE :N                                        
                                                                                
*SUMMARY OF SOIL AND GENETIC INPUT PARAMETERS                                   
                                                                                
   SOIL LOWER UPPER   SAT  EXTR  INIT   ROOT   BULK     pH    NO3    NH4    ORG 
  DEPTH LIMIT LIMIT    SW    SW    SW   DIST   DENS                          C  
   cm   cm3/cm3    cm3/cm3    cm3/cm3         g/cm3         ugN/g  ugN/g     %  
------------------------------------------------------------------------------- 
  0-  5 0.215 0.440 0.484 0.225 0.282   1.00   1.05   0.40   5.00   1.50   4.64 
  5- 15 0.215 0.440 0.484 0.225 0.282   1.00   1.05   0.40   5.00   1.50   4.64 
 15- 30 0.215 0.440 0.484 0.225 0.282   1.00   1.05   0.40   5.00   1.50   4.64 
 30- 41 0.219 0.365 0.457 0.146 0.262   0.40   1.22   6.80   4.60   1.50   2.74 
 41- 53 0.219 0.365 0.457 0.146 0.262   0.40   1.22   6.80   4.60   1.50   2.74 
 53- 63 0.215 0.287 0.429 0.072 0.287   0.10   1.38   7.30   0.00   1.50   1.07 
 63- 74 0.215 0.287 0.429 0.072 0.287   0.10   1.38   7.30   0.00   1.50   1.07 
 74- 84 0.215 0.287 0.429 0.072 0.287   0.10   1.38   7.30   0.00   1.50   1.07 
 84-110 0.214 0.275 0.424 0.061 0.275   0.10   1.41   7.80   0.00   1.50   0.71 
110-125 0.209 0.312 0.438 0.103 0.312   0.00   1.44   8.00   0.00   1.50   0.35 
                                                                                
TOT-125  26.9  42.3  55.9  15.5  35.2  <--cm   -  kg/ha-->   28.7   24.1 302408 
SOIL ALBEDO    : 0.12      EVAPORATION LIMIT :10.00         MIN. FACTOR  : 1.00 
RUNOFF CURVE # : 0.75      DRAINAGE RATE     : 0.25         FERT. FACTOR : 1.00 
                                                                                
 Soybean    CULTIVAR :UY0141-GM 4 URUGUAY       ECOTYPE :INDETE                 
 CSDVAR :13.39  PPSEN  : 0.29  EMG-FLW:20.80  FLW-FSD:18.00  FSD-PHM : 36.00    
 WTPSD  :0.200  SDPDVR : 1.70  SDFDUR :26.00  PODDUR :10.00  XFRUIT  :  1.00    
 THRESH : 77.0  SDPRO  :0.405  SDLIP   : 0.205                                  


   PLANT COMPONENT  HARVEST     LOST*   TOTAL  BALANCE
   ---------------  -------- kg[N]/ha -------  -------
   Leaf N              1.34    25.72    27.07
   Stem N              8.40     4.46    12.85
   Shell N            21.89    24.47    46.36
   Seed N            237.66     0.00   237.66
   Root N              6.78     7.02    13.81
   Nodule N            2.84     3.62     6.46
   Total N           278.92    65.29   344.21
   N leakage                            20.58
   TOTAL N                                      364.79


   N INPUTS TO SYSTEM                kg[N]/ha
   ------------------                --------
   Seed N At Planting                    0.68
   N2 Fixed                            202.60
   N Uptake from Soil                  161.52
   TOTAL N                                      364.81

   * Lost due to senescence, freeze, pest or disease damage.

*******************************************************************************

*DSSAT Cropping System Model Ver. 4.6.1.000 -release      NOV 01, 2016; 12:29:55
                                                                                
*RUN  13        : UYSB                      CRGRO046 UYSB1029    1              
 MODEL          : CRGRO046 - Soybean                                            
 EXPERIMENT     : UYSB1029 SN late to create DSS                                
 DATA PATH      :                                                               
 TREATMENT  1   : UYSB                      CRGRO046                            
                                                                                
                                                                                
 CROP           : Soybean          CULTIVAR : GM 4 URUGUAY     ECOTYPE :INDETE  
 STARTING DATE  : OCT 30 1999                                                   
 PLANTING DATE  : NOV  2 1999        PLANTS/m2 :  7.0     ROW SPACING :  15.cm  
 WEATHER        : UYTA9901                                                      
 SOIL           : UYSS0N2002     TEXTURE : -99   -  N20-02    SNIA CLAY RISS    
 SOIL INITIAL C : DEPTH:125cm EXTR. H2O:154.7mm  NO3: 28.7kg/ha  NH4: 24.1kg/ha 
 WATER BALANCE  : AUTOMATIC IRRIGATION - REFILL PROFILE                         
 IRRIGATION     : AUTOMATIC - PLANTING -> MATURITY [ SOIL DEPTH: 0.30m 50.%]    
 NITROGEN BAL.  : SOIL-N, N-UPTAKE & DYNAMIC N-FIXATION SIMULATION              
 N-FERTILIZER   :       10 kg/ha IN     1 APPLICATIONS                          
 RESIDUE/MANURE : INITIAL :     0 kg/ha ;       0 kg/ha IN     0 APPLICATIONS   
 ENVIRONM. OPT. : DAYL=    0.00  SRAD=    0.00  TMAX=    0.00  TMIN=    0.00    
                  RAIN=    0.00  CO2 =    0.00  DEW =    0.00  WIND=    0.00    
 SIMULATION OPT : WATER   :Y  NITROGEN:Y  N-FIX:Y  PHOSPH :N  PESTS  :N         
                  PHOTO   :C  ET      :R  INFIL:S  HYDROL :R  SOM    :G         
                  CO2 369ppm  NSWIT   :1  EVAP :S  SOIL   :2  STEMP  :D         
 MANAGEMENT OPT : PLANTING:R  IRRIG   :A  FERT :D  RESIDUE:N  HARVEST:M         
                  WEATHER :M  TILLAGE :N                                        
                                                                                
*SUMMARY OF SOIL AND GENETIC INPUT PARAMETERS                                   
                                                                                
   SOIL LOWER UPPER   SAT  EXTR  INIT   ROOT   BULK     pH    NO3    NH4    ORG 
  DEPTH LIMIT LIMIT    SW    SW    SW   DIST   DENS                          C  
   cm   cm3/cm3    cm3/cm3    cm3/cm3         g/cm3         ugN/g  ugN/g     %  
------------------------------------------------------------------------------- 
  0-  5 0.215 0.440 0.484 0.225 0.282   1.00   1.05   0.40   5.00   1.50   4.64 
  5- 15 0.215 0.440 0.484 0.225 0.282   1.00   1.05   0.40   5.00   1.50   4.64 
 15- 30 0.215 0.440 0.484 0.225 0.282   1.00   1.05   0.40   5.00   1.50   4.64 
 30- 41 0.219 0.365 0.457 0.146 0.262   0.40   1.22   6.80   4.60   1.50   2.74 
 41- 53 0.219 0.365 0.457 0.146 0.262   0.40   1.22   6.80   4.60   1.50   2.74 
 53- 63 0.215 0.287 0.429 0.072 0.287   0.10   1.38   7.30   0.00   1.50   1.07 
 63- 74 0.215 0.287 0.429 0.072 0.287   0.10   1.38   7.30   0.00   1.50   1.07 
 74- 84 0.215 0.287 0.429 0.072 0.287   0.10   1.38   7.30   0.00   1.50   1.07 
 84-110 0.214 0.275 0.424 0.061 0.275   0.10   1.41   7.80   0.00   1.50   0.71 
110-125 0.209 0.312 0.438 0.103 0.312   0.00   1.44   8.00   0.00   1.50   0.35 
                                                                                
TOT-125  26.9  42.3  55.9  15.5  35.2  <--cm   -  kg/ha-->   28.7   24.1 302408 
SOIL ALBEDO    : 0.12      EVAPORATION LIMIT :10.00         MIN. FACTOR  : 1.00 
RUNOFF CURVE # : 0.75      DRAINAGE RATE     : 0.25         FERT. FACTOR : 1.00 
                                                                                
 Soybean    CULTIVAR :UY0141-GM 4 URUGUAY       ECOTYPE :INDETE                 
 CSDVAR :13.39  PPSEN  : 0.29  EMG-FLW:20.80  FLW-FSD:18.00  FSD-PHM : 36.00    
 WTPSD  :0.200  SDPDVR : 1.70  SDFDUR :26.00  PODDUR :10.00  XFRUIT  :  1.00    
 THRESH : 77.0  SDPRO  :0.405  SDLIP   : 0.205                                  


   PLANT COMPONENT  HARVEST     LOST*   TOTAL  BALANCE
   ---------------  -------- kg[N]/ha -------  -------
   Leaf N              1.33    26.26    27.59
   Stem N              8.42     4.55    12.96
   Shell N            20.92    21.29    42.21
   Seed N            249.70     0.00   249.70
   Root N              6.68     7.82    14.50
   Nodule N            2.53     4.84     7.37
   Total N           289.58    64.75   354.33
   N leakage                            19.04
   TOTAL N                                      373.37


   N INPUTS TO SYSTEM                kg[N]/ha
   ------------------                --------
   Seed N At Planting                    0.68
   N2 Fixed                            215.38
   N Uptake from Soil                  157.33
   TOTAL N                                      373.39

   * Lost due to senescence, freeze, pest or disease damage.

*******************************************************************************

*DSSAT Cropping System Model Ver. 4.6.1.000 -release      NOV 01, 2016; 12:29:55
                                                                                
*RUN  14        : UYSB                      CRGRO046 UYSB1029    1              
 MODEL          : CRGRO046 - Soybean                                            
 EXPERIMENT     : UYSB1029 SN late to create DSS                                
 DATA PATH      :                                                               
 TREATMENT  1   : UYSB                      CRGRO046                            
                                                                                
                                                                                
 CROP           : Soybean          CULTIVAR : GM 4 URUGUAY     ECOTYPE :INDETE  
 STARTING DATE  : OCT 29 2000                                                   
 PLANTING DATE  : NOV  1 2000        PLANTS/m2 :  7.0     ROW SPACING :  15.cm  
 WEATHER        : UYTA0001                                                      
 SOIL           : UYSS0N2002     TEXTURE : -99   -  N20-02    SNIA CLAY RISS    
 SOIL INITIAL C : DEPTH:125cm EXTR. H2O:154.7mm  NO3: 28.7kg/ha  NH4: 24.1kg/ha 
 WATER BALANCE  : AUTOMATIC IRRIGATION - REFILL PROFILE                         
 IRRIGATION     : AUTOMATIC - PLANTING -> MATURITY [ SOIL DEPTH: 0.30m 50.%]    
 NITROGEN BAL.  : SOIL-N, N-UPTAKE & DYNAMIC N-FIXATION SIMULATION              
 N-FERTILIZER   :       10 kg/ha IN     1 APPLICATIONS                          
 RESIDUE/MANURE : INITIAL :     0 kg/ha ;       0 kg/ha IN     0 APPLICATIONS   
 ENVIRONM. OPT. : DAYL=    0.00  SRAD=    0.00  TMAX=    0.00  TMIN=    0.00    
                  RAIN=    0.00  CO2 =    0.00  DEW =    0.00  WIND=    0.00    
 SIMULATION OPT : WATER   :Y  NITROGEN:Y  N-FIX:Y  PHOSPH :N  PESTS  :N         
                  PHOTO   :C  ET      :R  INFIL:S  HYDROL :R  SOM    :G         
                  CO2 370ppm  NSWIT   :1  EVAP :S  SOIL   :2  STEMP  :D         
 MANAGEMENT OPT : PLANTING:R  IRRIG   :A  FERT :D  RESIDUE:N  HARVEST:M         
                  WEATHER :M  TILLAGE :N                                        
                                                                                
*SUMMARY OF SOIL AND GENETIC INPUT PARAMETERS                                   
                                                                                
   SOIL LOWER UPPER   SAT  EXTR  INIT   ROOT   BULK     pH    NO3    NH4    ORG 
  DEPTH LIMIT LIMIT    SW    SW    SW   DIST   DENS                          C  
   cm   cm3/cm3    cm3/cm3    cm3/cm3         g/cm3         ugN/g  ugN/g     %  
------------------------------------------------------------------------------- 
  0-  5 0.215 0.440 0.484 0.225 0.282   1.00   1.05   0.40   5.00   1.50   4.64 
  5- 15 0.215 0.440 0.484 0.225 0.282   1.00   1.05   0.40   5.00   1.50   4.64 
 15- 30 0.215 0.440 0.484 0.225 0.282   1.00   1.05   0.40   5.00   1.50   4.64 
 30- 41 0.219 0.365 0.457 0.146 0.262   0.40   1.22   6.80   4.60   1.50   2.74 
 41- 53 0.219 0.365 0.457 0.146 0.262   0.40   1.22   6.80   4.60   1.50   2.74 
 53- 63 0.215 0.287 0.429 0.072 0.287   0.10   1.38   7.30   0.00   1.50   1.07 
 63- 74 0.215 0.287 0.429 0.072 0.287   0.10   1.38   7.30   0.00   1.50   1.07 
 74- 84 0.215 0.287 0.429 0.072 0.287   0.10   1.38   7.30   0.00   1.50   1.07 
 84-110 0.214 0.275 0.424 0.061 0.275   0.10   1.41   7.80   0.00   1.50   0.71 
110-125 0.209 0.312 0.438 0.103 0.312   0.00   1.44   8.00   0.00   1.50   0.35 
                                                                                
TOT-125  26.9  42.3  55.9  15.5  35.2  <--cm   -  kg/ha-->   28.7   24.1 302408 
SOIL ALBEDO    : 0.12      EVAPORATION LIMIT :10.00         MIN. FACTOR  : 1.00 
RUNOFF CURVE # : 0.75      DRAINAGE RATE     : 0.25         FERT. FACTOR : 1.00 
                                                                                
 Soybean    CULTIVAR :UY0141-GM 4 URUGUAY       ECOTYPE :INDETE                 
 CSDVAR :13.39  PPSEN  : 0.29  EMG-FLW:20.80  FLW-FSD:18.00  FSD-PHM : 36.00    
 WTPSD  :0.200  SDPDVR : 1.70  SDFDUR :26.00  PODDUR :10.00  XFRUIT  :  1.00    
 THRESH : 77.0  SDPRO  :0.405  SDLIP   : 0.205                                  


   PLANT COMPONENT  HARVEST     LOST*   TOTAL  BALANCE
   ---------------  -------- kg[N]/ha -------  -------
   Leaf N              1.10    21.76    22.86
   Stem N              6.83     3.72    10.55
   Shell N            20.46    21.76    42.22
   Seed N            222.41     0.00   222.41
   Root N              5.57     6.51    12.08
   Nodule N            2.65     3.89     6.54
   Total N           259.01    57.65   316.66
   N leakage                            18.55
   TOTAL N                                      335.21


   N INPUTS TO SYSTEM                kg[N]/ha
   ------------------                --------
   Seed N At Planting                    0.68
   N2 Fixed                            169.71
   N Uptake from Soil                  164.84
   TOTAL N                                      335.23

   * Lost due to senescence, freeze, pest or disease damage.

*******************************************************************************

*DSSAT Cropping System Model Ver. 4.6.1.000 -release      NOV 01, 2016; 12:29:55
                                                                                
*RUN  15        : UYSB                      CRGRO046 UYSB1029    1              
 MODEL          : CRGRO046 - Soybean                                            
 EXPERIMENT     : UYSB1029 SN late to create DSS                                
 DATA PATH      :                                                               
 TREATMENT  1   : UYSB                      CRGRO046                            
                                                                                
                                                                                
 CROP           : Soybean          CULTIVAR : GM 4 URUGUAY     ECOTYPE :INDETE  
 STARTING DATE  : OCT 30 2001                                                   
 PLANTING DATE  : NOV  2 2001        PLANTS/m2 :  7.0     ROW SPACING :  15.cm  
 WEATHER        : UYTA0101                                                      
 SOIL           : UYSS0N2002     TEXTURE : -99   -  N20-02    SNIA CLAY RISS    
 SOIL INITIAL C : DEPTH:125cm EXTR. H2O:154.7mm  NO3: 28.7kg/ha  NH4: 24.1kg/ha 
 WATER BALANCE  : AUTOMATIC IRRIGATION - REFILL PROFILE                         
 IRRIGATION     : AUTOMATIC - PLANTING -> MATURITY [ SOIL DEPTH: 0.30m 50.%]    
 NITROGEN BAL.  : SOIL-N, N-UPTAKE & DYNAMIC N-FIXATION SIMULATION              
 N-FERTILIZER   :       10 kg/ha IN     1 APPLICATIONS                          
 RESIDUE/MANURE : INITIAL :     0 kg/ha ;       0 kg/ha IN     0 APPLICATIONS   
 ENVIRONM. OPT. : DAYL=    0.00  SRAD=    0.00  TMAX=    0.00  TMIN=    0.00    
                  RAIN=    0.00  CO2 =    0.00  DEW =    0.00  WIND=    0.00    
 SIMULATION OPT : WATER   :Y  NITROGEN:Y  N-FIX:Y  PHOSPH :N  PESTS  :N         
                  PHOTO   :C  ET      :R  INFIL:S  HYDROL :R  SOM    :G         
                  CO2 372ppm  NSWIT   :1  EVAP :S  SOIL   :2  STEMP  :D         
 MANAGEMENT OPT : PLANTING:R  IRRIG   :A  FERT :D  RESIDUE:N  HARVEST:M         
                  WEATHER :M  TILLAGE :N                                        
                                                                                
*SUMMARY OF SOIL AND GENETIC INPUT PARAMETERS                                   
                                                                                
   SOIL LOWER UPPER   SAT  EXTR  INIT   ROOT   BULK     pH    NO3    NH4    ORG 
  DEPTH LIMIT LIMIT    SW    SW    SW   DIST   DENS                          C  
   cm   cm3/cm3    cm3/cm3    cm3/cm3         g/cm3         ugN/g  ugN/g     %  
------------------------------------------------------------------------------- 
  0-  5 0.215 0.440 0.484 0.225 0.282   1.00   1.05   0.40   5.00   1.50   4.64 
  5- 15 0.215 0.440 0.484 0.225 0.282   1.00   1.05   0.40   5.00   1.50   4.64 
 15- 30 0.215 0.440 0.484 0.225 0.282   1.00   1.05   0.40   5.00   1.50   4.64 
 30- 41 0.219 0.365 0.457 0.146 0.262   0.40   1.22   6.80   4.60   1.50   2.74 
 41- 53 0.219 0.365 0.457 0.146 0.262   0.40   1.22   6.80   4.60   1.50   2.74 
 53- 63 0.215 0.287 0.429 0.072 0.287   0.10   1.38   7.30   0.00   1.50   1.07 
 63- 74 0.215 0.287 0.429 0.072 0.287   0.10   1.38   7.30   0.00   1.50   1.07 
 74- 84 0.215 0.287 0.429 0.072 0.287   0.10   1.38   7.30   0.00   1.50   1.07 
 84-110 0.214 0.275 0.424 0.061 0.275   0.10   1.41   7.80   0.00   1.50   0.71 
110-125 0.209 0.312 0.438 0.103 0.312   0.00   1.44   8.00   0.00   1.50   0.35 
                                                                                
TOT-125  26.9  42.3  55.9  15.5  35.2  <--cm   -  kg/ha-->   28.7   24.1 302408 
SOIL ALBEDO    : 0.12      EVAPORATION LIMIT :10.00         MIN. FACTOR  : 1.00 
RUNOFF CURVE # : 0.75      DRAINAGE RATE     : 0.25         FERT. FACTOR : 1.00 
                                                                                
 Soybean    CULTIVAR :UY0141-GM 4 URUGUAY       ECOTYPE :INDETE                 
 CSDVAR :13.39  PPSEN  : 0.29  EMG-FLW:20.80  FLW-FSD:18.00  FSD-PHM : 36.00    
 WTPSD  :0.200  SDPDVR : 1.70  SDFDUR :26.00  PODDUR :10.00  XFRUIT  :  1.00    
 THRESH : 77.0  SDPRO  :0.405  SDLIP   : 0.205                                  


   PLANT COMPONENT  HARVEST     LOST*   TOTAL  BALANCE
   ---------------  -------- kg[N]/ha -------  -------
   Leaf N              1.28    24.23    25.51
   Stem N              7.78     4.16    11.94
   Shell N            22.15    25.83    47.98
   Seed N            241.60     0.00   241.60
   Root N              6.00     6.99    12.99
   Nodule N            2.66     3.90     6.56
   Total N           281.48    65.09   346.58
   N leakage                            17.49
   TOTAL N                                      364.07


   N INPUTS TO SYSTEM                kg[N]/ha
   ------------------                --------
   Seed N At Planting                    0.68
   N2 Fixed                            193.58
   N Uptake from Soil                  169.82
   TOTAL N                                      364.08

   * Lost due to senescence, freeze, pest or disease damage.

*******************************************************************************

*DSSAT Cropping System Model Ver. 4.6.1.000 -release      NOV 01, 2016; 12:29:55
                                                                                
*RUN  16        : UYSB                      CRGRO046 UYSB1029    1              
 MODEL          : CRGRO046 - Soybean                                            
 EXPERIMENT     : UYSB1029 SN late to create DSS                                
 DATA PATH      :                                                               
 TREATMENT  1   : UYSB                      CRGRO046                            
                                                                                
                                                                                
 CROP           : Soybean          CULTIVAR : GM 4 URUGUAY     ECOTYPE :INDETE  
 STARTING DATE  : OCT 30 2002                                                   
 PLANTING DATE  : NOV  2 2002        PLANTS/m2 :  7.0     ROW SPACING :  15.cm  
 WEATHER        : UYTA0201                                                      
[...]
 SOIL           : UYSS0N2002     TEXTURE : -99   -  N20-02    SNIA CLAY RISS    
 SOIL INITIAL C : DEPTH:125cm EXTR. H2O:154.7mm  NO3: 28.7kg/ha  NH4: 24.1kg/ha 
 WATER BALANCE  : AUTOMATIC IRRIGATION - REFILL PROFILE                         
 IRRIGATION     : AUTOMATIC - PLANTING -> MATURITY [ SOIL DEPTH: 0.30m 50.%]    
 NITROGEN BAL.  : SOIL-N, N-UPTAKE & DYNAMIC N-FIXATION SIMULATION              
 N-FERTILIZER   :       10 kg/ha IN     1 APPLICATIONS                          
 RESIDUE/MANURE : INITIAL :     0 kg/ha ;       0 kg/ha IN     0 APPLICATIONS   
 ENVIRONM. OPT. : DAYL=    0.00  SRAD=    0.00  TMAX=    0.00  TMIN=    0.00    
                  RAIN=    0.00  CO2 =    0.00  DEW =    0.00  WIND=    0.00    
 SIMULATION OPT : WATER   :Y  NITROGEN:Y  N-FIX:Y  PHOSPH :N  PESTS  :N         
                  PHOTO   :C  ET      :R  INFIL:S  HYDROL :R  SOM    :G         
                  CO2 384ppm  NSWIT   :1  EVAP :S  SOIL   :2  STEMP  :D         
 MANAGEMENT OPT : PLANTING:R  IRRIG   :A  FERT :D  RESIDUE:N  HARVEST:M         
                  WEATHER :M  TILLAGE :N                                        
                                                                                
*SUMMARY OF SOIL AND GENETIC INPUT PARAMETERS                                   
                                                                                
   SOIL LOWER UPPER   SAT  EXTR  INIT   ROOT   BULK     pH    NO3    NH4    ORG 
  DEPTH LIMIT LIMIT    SW    SW    SW   DIST   DENS                          C  
   cm   cm3/cm3    cm3/cm3    cm3/cm3         g/cm3         ugN/g  ugN/g     %  
------------------------------------------------------------------------------- 
  0-  5 0.215 0.440 0.484 0.225 0.282   1.00   1.05   0.40   5.00   1.50   4.64 
  5- 15 0.215 0.440 0.484 0.225 0.282   1.00   1.05   0.40   5.00   1.50   4.64 
 15- 30 0.215 0.440 0.484 0.225 0.282   1.00   1.05   0.40   5.00   1.50   4.64 
 30- 41 0.219 0.365 0.457 0.146 0.262   0.40   1.22   6.80   4.60   1.50   2.74 
 41- 53 0.219 0.365 0.457 0.146 0.262   0.40   1.22   6.80   4.60   1.50   2.74 
 53- 63 0.215 0.287 0.429 0.072 0.287   0.10   1.38   7.30   0.00   1.50   1.07 
 63- 74 0.215 0.287 0.429 0.072 0.287   0.10   1.38   7.30   0.00   1.50   1.07 
 74- 84 0.215 0.287 0.429 0.072 0.287   0.10   1.38   7.30   0.00   1.50   1.07 
 84-110 0.214 0.275 0.424 0.061 0.275   0.10   1.41   7.80   0.00   1.50   0.71 
110-125 0.209 0.312 0.438 0.103 0.312   0.00   1.44   8.00   0.00   1.50   0.35 
                                                                                
TOT-125  26.9  42.3  55.9  15.5  35.2  <--cm   -  kg/ha-->   28.7   24.1 302408 
SOIL ALBEDO    : 0.12      EVAPORATION LIMIT :10.00         MIN. FACTOR  : 1.00 
RUNOFF CURVE # : 0.75      DRAINAGE RATE     : 0.25         FERT. FACTOR : 1.00 
                                                                                
 Soybean    CULTIVAR :UY0141-GM 4 URUGUAY       ECOTYPE :INDETE                 
 CSDVAR :13.39  PPSEN  : 0.29  EMG-FLW:20.80  FLW-FSD:18.00  FSD-PHM : 36.00    
 WTPSD  :0.200  SDPDVR : 1.70  SDFDUR :26.00  PODDUR :10.00  XFRUIT  :  1.00    
 THRESH : 77.0  SDPRO  :0.405  SDLIP   : 0.205                                  


   PLANT COMPONENT  HARVEST     LOST*   TOTAL  BALANCE
   ---------------  -------- kg[N]/ha -------  -------
   Leaf N              1.27    24.50    25.77
   Stem N              7.87     4.23    12.10
   Shell N            20.32    26.77    47.08
   Seed N            250.34     0.00   250.34
   Root N              6.23     7.56    13.79
   Nodule N            3.38     3.42     6.81
   Total N           289.41    66.48   355.89
   N leakage                            16.85
   TOTAL N                                      372.74


   N INPUTS TO SYSTEM                kg[N]/ha
   ------------------                --------
   Seed N At Planting                    0.68
   N2 Fixed                            236.07
   N Uptake from Soil                  136.00
   TOTAL N                                      372.76

   * Lost due to senescence, freeze, pest or disease damage.

*******************************************************************************

*DSSAT Cropping System Model Ver. 4.6.1.000 -release      NOV 01, 2016; 12:29:55
                                                                                
*RUN  22        : UYSB                      CRGRO046 UYSB1029    1              
 MODEL          : CRGRO046 - Soybean                                            
 EXPERIMENT     : UYSB1029 SN late to create DSS                                
 DATA PATH      :                                                               
 TREATMENT  1   : UYSB                      CRGRO046                            
                                                                                
                                                                                
 CROP           : Soybean          CULTIVAR : GM 4 URUGUAY     ECOTYPE :INDETE  
 STARTING DATE  : OCT 29 2008                                                   
 PLANTING DATE  : NOV  1 2008        PLANTS/m2 :  7.0     ROW SPACING :  15.cm  
 WEATHER        : UYTA0801                                                      
 SOIL           : UYSS0N2002     TEXTURE : -99   -  N20-02    SNIA CLAY RISS    
 SOIL INITIAL C : DEPTH:125cm EXTR. H2O:154.7mm  NO3: 28.7kg/ha  NH4: 24.1kg/ha 
 WATER BALANCE  : AUTOMATIC IRRIGATION - REFILL PROFILE                         
 IRRIGATION     : AUTOMATIC - PLANTING -> MATURITY [ SOIL DEPTH: 0.30m 50.%]    
 NITROGEN BAL.  : SOIL-N, N-UPTAKE & DYNAMIC N-FIXATION SIMULATION              
 N-FERTILIZER   :       10 kg/ha IN     1 APPLICATIONS                          
 RESIDUE/MANURE : INITIAL :     0 kg/ha ;       0 kg/ha IN     0 APPLICATIONS   
 ENVIRONM. OPT. : DAYL=    0.00  SRAD=    0.00  TMAX=    0.00  TMIN=    0.00    
                  RAIN=    0.00  CO2 =    0.00  DEW =    0.00  WIND=    0.00    
 SIMULATION OPT : WATER   :Y  NITROGEN:Y  N-FIX:Y  PHOSPH :N  PESTS  :N         
                  PHOTO   :C  ET      :R  INFIL:S  HYDROL :R  SOM    :G         
                  CO2 386ppm  NSWIT   :1  EVAP :S  SOIL   :2  STEMP  :D         
 MANAGEMENT OPT : PLANTING:R  IRRIG   :A  FERT :D  RESIDUE:N  HARVEST:M         
                  WEATHER :M  TILLAGE :N                                        
                                                                                
*SUMMARY OF SOIL AND GENETIC INPUT PARAMETERS                                   
                                                                                
   SOIL LOWER UPPER   SAT  EXTR  INIT   ROOT   BULK     pH    NO3    NH4    ORG 
  DEPTH LIMIT LIMIT    SW    SW    SW   DIST   DENS                          C  
   cm   cm3/cm3    cm3/cm3    cm3/cm3         g/cm3         ugN/g  ugN/g     %  
------------------------------------------------------------------------------- 
  0-  5 0.215 0.440 0.484 0.225 0.282   1.00   1.05   0.40   5.00   1.50   4.64 
  5- 15 0.215 0.440 0.484 0.225 0.282   1.00   1.05   0.40   5.00   1.50   4.64 
 15- 30 0.215 0.440 0.484 0.225 0.282   1.00   1.05   0.40   5.00   1.50   4.64 
 30- 41 0.219 0.365 0.457 0.146 0.262   0.40   1.22   6.80   4.60   1.50   2.74 
 41- 53 0.219 0.365 0.457 0.146 0.262   0.40   1.22   6.80   4.60   1.50   2.74 
 53- 63 0.215 0.287 0.429 0.072 0.287   0.10   1.38   7.30   0.00   1.50   1.07 
 63- 74 0.215 0.287 0.429 0.072 0.287   0.10   1.38   7.30   0.00   1.50   1.07 
 74- 84 0.215 0.287 0.429 0.072 0.287   0.10   1.38   7.30   0.00   1.50   1.07 
 84-110 0.214 0.275 0.424 0.061 0.275   0.10   1.41   7.80   0.00   1.50   0.71 
110-125 0.209 0.312 0.438 0.103 0.312   0.00   1.44   8.00   0.00   1.50   0.35 
                                                                                
TOT-125  26.9  42.3  55.9  15.5  35.2  <--cm   -  kg/ha-->   28.7   24.1 302408 
SOIL ALBEDO    : 0.12      EVAPORATION LIMIT :10.00         MIN. FACTOR  : 1.00 
RUNOFF CURVE # : 0.75      DRAINAGE RATE     : 0.25         FERT. FACTOR : 1.00 
                                                                                
 Soybean    CULTIVAR :UY0141-GM 4 URUGUAY       ECOTYPE :INDETE                 
 CSDVAR :13.39  PPSEN  : 0.29  EMG-FLW:20.80  FLW-FSD:18.00  FSD-PHM : 36.00    
 WTPSD  :0.200  SDPDVR : 1.70  SDFDUR :26.00  PODDUR :10.00  XFRUIT  :  1.00    
 THRESH : 77.0  SDPRO  :0.405  SDLIP   : 0.205                                  


   PLANT COMPONENT  HARVEST     LOST*   TOTAL  BALANCE
   ---------------  -------- kg[N]/ha -------  -------
   Leaf N              1.28    25.40    26.67
   Stem N              8.19     4.33    12.52
   Shell N            21.07    28.66    49.74
   Seed N            273.23     0.00   273.23
   Root N              6.71     7.26    13.97
   Nodule N            3.40     3.37     6.77
   Total N           313.88    69.02   382.91
   N leakage                            20.18
   TOTAL N                                      403.09


   N INPUTS TO SYSTEM                kg[N]/ha
   ------------------                --------
   Seed N At Planting                    0.68
   N2 Fixed                            247.60
   N Uptake from Soil                  154.84
   TOTAL N                                      403.12

   * Lost due to senescence, freeze, pest or disease damage.

*******************************************************************************

*DSSAT Cropping System Model Ver. 4.6.1.000 -release      NOV 01, 2016; 12:29:55
                                                                                
*RUN  23        : UYSB                      CRGRO046 UYSB1029    1              
 MODEL          : CRGRO046 - Soybean                                            
 EXPERIMENT     : UYSB1029 SN late to create DSS                                
 DATA PATH      :                                                               
 TREATMENT  1   : UYSB                      CRGRO046                            
                                                                                
                                                                                
 CROP           : Soybean          CULTIVAR : GM 4 URUGUAY     ECOTYPE :INDETE  
 STARTING DATE  : OCT 30 2009                                                   
 PLANTING DATE  : NOV  2 2009        PLANTS/m2 :  7.0     ROW SPACING :  15.cm  
 WEATHER        : UYTA0901                                                      
 SOIL           : UYSS0N2002     TEXTURE : -99   -  N20-02    SNIA CLAY RISS    
 SOIL INITIAL C : DEPTH:125cm EXTR. H2O:154.7mm  NO3: 28.7kg/ha  NH4: 24.1kg/ha 
 WATER BALANCE  : AUTOMATIC IRRIGATION - REFILL PROFILE                         
 IRRIGATION     : AUTOMATIC - PLANTING -> MATURITY [ SOIL DEPTH: 0.30m 50.%]    
 NITROGEN BAL.  : SOIL-N, N-UPTAKE & DYNAMIC N-FIXATION SIMULATION              
 N-FERTILIZER   :       10 kg/ha IN     1 APPLICATIONS                          
 RESIDUE/MANURE : INITIAL :     0 kg/ha ;       0 kg/ha IN     0 APPLICATIONS   
 ENVIRONM. OPT. : DAYL=    0.00  SRAD=    0.00  TMAX=    0.00  TMIN=    0.00    
                  RAIN=    0.00  CO2 =    0.00  DEW =    0.00  WIND=    0.00    
 SIMULATION OPT : WATER   :Y  NITROGEN:Y  N-FIX:Y  PHOSPH :N  PESTS  :N         
                  PHOTO   :C  ET      :R  INFIL:S  HYDROL :R  SOM    :G         
                  CO2 388ppm  NSWIT   :1  EVAP :S  SOIL   :2  STEMP  :D         
 MANAGEMENT OPT : PLANTING:R  IRRIG   :A  FERT :D  RESIDUE:N  HARVEST:M         
                  WEATHER :M  TILLAGE :N                                        
                                                                                
*SUMMARY OF SOIL AND GENETIC INPUT PARAMETERS                                   
                                                                                
   SOIL LOWER UPPER   SAT  EXTR  INIT   ROOT   BULK     pH    NO3    NH4    ORG 
  DEPTH LIMIT LIMIT    SW    SW    SW   DIST   DENS                          C  
   cm   cm3/cm3    cm3/cm3    cm3/cm3         g/cm3         ugN/g  ugN/g     %  
------------------------------------------------------------------------------- 
  0-  5 0.215 0.440 0.484 0.225 0.282   1.00   1.05   0.40   5.00   1.50   4.64 
  5- 15 0.215 0.440 0.484 0.225 0.282   1.00   1.05   0.40   5.00   1.50   4.64 
 15- 30 0.215 0.440 0.484 0.225 0.282   1.00   1.05   0.40   5.00   1.50   4.64 
 30- 41 0.219 0.365 0.457 0.146 0.262   0.40   1.22   6.80   4.60   1.50   2.74 
 41- 53 0.219 0.365 0.457 0.146 0.262   0.40   1.22   6.80   4.60   1.50   2.74 
 53- 63 0.215 0.287 0.429 0.072 0.287   0.10   1.38   7.30   0.00   1.50   1.07 
 63- 74 0.215 0.287 0.429 0.072 0.287   0.10   1.38   7.30   0.00   1.50   1.07 
 74- 84 0.215 0.287 0.429 0.072 0.287   0.10   1.38   7.30   0.00   1.50   1.07 
 84-110 0.214 0.275 0.424 0.061 0.275   0.10   1.41   7.80   0.00   1.50   0.71 
110-125 0.209 0.312 0.438 0.103 0.312   0.00   1.44   8.00   0.00   1.50   0.35 
                                                                                
TOT-125  26.9  42.3  55.9  15.5  35.2  <--cm   -  kg/ha-->   28.7   24.1 302408 
SOIL ALBEDO    : 0.12      EVAPORATION LIMIT :10.00         MIN. FACTOR  : 1.00 
RUNOFF CURVE # : 0.75      DRAINAGE RATE     : 0.25         FERT. FACTOR : 1.00 
                                                                                
 Soybean    CULTIVAR :UY0141-GM 4 URUGUAY       ECOTYPE :INDETE                 
 CSDVAR :13.39  PPSEN  : 0.29  EMG-FLW:20.80  FLW-FSD:18.00  FSD-PHM : 36.00    
 WTPSD  :0.200  SDPDVR : 1.70  SDFDUR :26.00  PODDUR :10.00  XFRUIT  :  1.00    
 THRESH : 77.0  SDPRO  :0.405  SDLIP   : 0.205                                  


   PLANT COMPONENT  HARVEST     LOST*   TOTAL  BALANCE
   ---------------  -------- kg[N]/ha -------  -------
   Leaf N              1.13    21.78    22.92
   Stem N              7.35     3.77    11.12
   Shell N            19.60    20.82    40.42
   Seed N            216.59     0.00   216.59
   Root N              3.88     8.33    12.21
   Nodule N            2.55     3.49     6.04
   Total N           251.10    58.19   309.29
   N leakage                            16.05
   TOTAL N                                      325.34


   N INPUTS TO SYSTEM                kg[N]/ha
   ------------------                --------
   Seed N At Planting                    0.68
   N2 Fixed                            169.61
   N Uptake from Soil                  155.06
   TOTAL N                                      325.35

   * Lost due to senescence, freeze, pest or disease damage.

*******************************************************************************

*DSSAT Cropping System Model Ver. 4.6.1.000 -release      NOV 01, 2016; 12:29:55
                                                                                
*RUN  24        : UYSB                      CRGRO046 UYSB1029    1              
 MODEL          : CRGRO046 - Soybean                                            
 EXPERIMENT     : UYSB1029 SN late to create DSS                                
 DATA PATH      :                                                               
 TREATMENT  1   : UYSB                      CRGRO046                            
                                                                                
                                                                                
 CROP           : Soybean          CULTIVAR : GM 4 URUGUAY     ECOTYPE :INDETE  
 STARTING DATE  : OCT 30 2010                                                   
 PLANTING DATE  : NOV  2 2010        PLANTS/m2 :  7.0     ROW SPACING :  15.cm  
 WEATHER        : UYTA1001                                                      
 SOIL           : UYSS0N2002     TEXTURE : -99   -  N20-02    SNIA CLAY RISS    
 SOIL INITIAL C : DEPTH:125cm EXTR. H2O:154.7mm  NO3: 28.7kg/ha  NH4: 24.1kg/ha 
 WATER BALANCE  : AUTOMATIC IRRIGATION - REFILL PROFILE                         
 IRRIGATION     : AUTOMATIC - PLANTING -> MATURITY [ SOIL DEPTH: 0.30m 50.%]    
 NITROGEN BAL.  : SOIL-N, N-UPTAKE & DYNAMIC N-FIXATION SIMULATION              
 N-FERTILIZER   :       10 kg/ha IN     1 APPLICATIONS                          
 RESIDUE/MANURE : INITIAL :     0 kg/ha ;       0 kg/ha IN     0 APPLICATIONS   
 ENVIRONM. OPT. : DAYL=    0.00  SRAD=    0.00  TMAX=    0.00  TMIN=    0.00    
                  RAIN=    0.00  CO2 =    0.00  DEW =    0.00  WIND=    0.00    
 SIMULATION OPT : WATER   :Y  NITROGEN:Y  N-FIX:Y  PHOSPH :N  PESTS  :N         
                  PHOTO   :C  ET      :R  INFIL:S  HYDROL :R  SOM    :G         
                  CO2 390ppm  NSWIT   :1  EVAP :S  SOIL   :2  STEMP  :D         
 MANAGEMENT OPT : PLANTING:R  IRRIG   :A  FERT :D  RESIDUE:N  HARVEST:M         
                  WEATHER :M  TILLAGE :N                                        
                                                                                
*SUMMARY OF SOIL AND GENETIC INPUT PARAMETERS                                   
                                                                                
   SOIL LOWER UPPER   SAT  EXTR  INIT   ROOT   BULK     pH    NO3    NH4    ORG 
  DEPTH LIMIT LIMIT    SW    SW    SW   DIST   DENS                          C  
   cm   cm3/cm3    cm3/cm3    cm3/cm3         g/cm3         ugN/g  ugN/g     %  
------------------------------------------------------------------------------- 
  0-  5 0.215 0.440 0.484 0.225 0.282   1.00   1.05   0.40   5.00   1.50   4.64 
  5- 15 0.215 0.440 0.484 0.225 0.282   1.00   1.05   0.40   5.00   1.50   4.64 
 15- 30 0.215 0.440 0.484 0.225 0.282   1.00   1.05   0.40   5.00   1.50   4.64 
 30- 41 0.219 0.365 0.457 0.146 0.262   0.40   1.22   6.80   4.60   1.50   2.74 
 41- 53 0.219 0.365 0.457 0.146 0.262   0.40   1.22   6.80   4.60   1.50   2.74 
 53- 63 0.215 0.287 0.429 0.072 0.287   0.10   1.38   7.30   0.00   1.50   1.07 
 63- 74 0.215 0.287 0.429 0.072 0.287   0.10   1.38   7.30   0.00   1.50   1.07 
 74- 84 0.215 0.287 0.429 0.072 0.287   0.10   1.38   7.30   0.00   1.50   1.07 
 84-110 0.214 0.275 0.424 0.061 0.275   0.10   1.41   7.80   0.00   1.50   0.71 
110-125 0.209 0.312 0.438 0.103 0.312   0.00   1.44   8.00   0.00   1.50   0.35 
                                                                                
TOT-125  26.9  42.3  55.9  15.5  35.2  <--cm   -  kg/ha-->   28.7   24.1 302408 
SOIL ALBEDO    : 0.12      EVAPORATION LIMIT :10.00         MIN. FACTOR  : 1.00 
RUNOFF CURVE # : 0.75      DRAINAGE RATE     : 0.25         FERT. FACTOR : 1.00 
                                                                                
 Soybean    CULTIVAR :UY0141-GM 4 URUGUAY       ECOTYPE :INDETE                 
 CSDVAR :13.39  PPSEN  : 0.29  EMG-FLW:20.80  FLW-FSD:18.00  FSD-PHM : 36.00    
 WTPSD  :0.200  SDPDVR : 1.70  SDFDUR :26.00  PODDUR :10.00  XFRUIT  :  1.00    
 THRESH : 77.0  SDPRO  :0.405  SDLIP   : 0.205                                  


   PLANT COMPONENT  HARVEST     LOST*   TOTAL  BALANCE
   ---------------  -------- kg[N]/ha -------  -------
   Leaf N              1.28    23.91    25.19
   Stem N              7.76     4.12    11.88
   Shell N            19.11    21.76    40.87
   Seed N            254.30     0.00   254.30
   Root N              5.98     7.39    13.37
   Nodule N            3.13     3.65     6.78
   Total N           291.57    60.83   352.40
   N leakage                            14.49
   TOTAL N                                      366.89


   N INPUTS TO SYSTEM                kg[N]/ha
   ------------------                --------
   Seed N At Planting                    0.68
   N2 Fixed                            199.65
   N Uptake from Soil                  166.57
   TOTAL N                                      366.90

   * Lost due to senescence, freeze, pest or disease damage.

*******************************************************************************
