*GROWTH ASPECTS OUTPUT FILE

*DSSAT Cropping System Model Ver. 4.0.2.000               Aug 29, 2016; 09:16:37

*RUN   1        : UYSB                    
 MODEL          : CRGRO040 - Soybean         
 EXPERIMENT     : UYSB0405 SB    late to create DSS                             
 TREATMENT  1   : UYSB                    

@YEAR DOY   DAS   DAP   L#SD   GSTD   LAID   LWAD   SWAD   GWAD   RWAD   CWAD   G#AD    GWGD   HIAD   PWAD   P#AD   WSPD   WSGD   NSTD   EWSD    LN%D   SH%D   HIPD   PWDD   PWTD   SLAD   CHTD   CWID   NWAD   RDPD   RL1D   RL2D   RL3D   RL4D   RL5D   RL6D   RL7D   RL8D   RL9D   RL10   SNW0C   SNW1C
 2000 241     3     0    0.0      0   0.00      0      0      0      0      0      0     0.0  0.000      0      0  0.000  0.000  0.000  0.000    0.00   0.00   0.00      0      0    0.0   0.00   0.00    0.0   0.00   0.00   0.00   0.00   0.00   0.00   0.00   0.00   0.00   0.00   0.00       0       0
 2000 242     4     1    0.0      0   0.00      0      0      0      0      0      0     0.0  0.000      0      0  0.000  0.000  0.000  0.000    0.00   0.00   0.00      0      0    0.0   0.00   0.00    0.0   0.00   0.00   0.00   0.00   0.00   0.00   0.00   0.00   0.00   0.00   0.00       0       0
 2000 243     5     2    0.0      0   0.00      0      0      0      0      0      0     0.0  0.000      0      0  0.000  0.000  0.000  0.000    0.00   0.00   0.00      0      0    0.0   0.00   0.00    0.0   0.00   0.00   0.00   0.00   0.00   0.00   0.00   0.00   0.00   0.00   0.00       0       0
 2000 244     6     3    0.0      0   0.00      0      0      0      0      0      0     0.0  0.000      0      0  0.000  0.000  0.000  0.000    0.00   0.00   0.00      0      0    0.0   0.00   0.00    0.0   0.00   0.00   0.00   0.00   0.00   0.00   0.00   0.00   0.00   0.00   0.00       0       0
 2000 245     7     4    0.0      0   0.00      0      0      0      0      0      0     0.0  0.000      0      0  0.000  0.000  0.000  0.000    0.00   0.00   0.00      0      0    0.0   0.00   0.00    0.0   0.00   0.00   0.00   0.00   0.00   0.00   0.00   0.00   0.00   0.00   0.00       0       0
 2000 246     8     5    0.0      0   0.00      0      0      0      0      0      0     0.0  0.000      0      0  0.000  0.000  0.000  0.000    0.00   0.00   0.00      0      0    0.0   0.00   0.00    0.0   0.00   0.00   0.00   0.00   0.00   0.00   0.00   0.00   0.00   0.00   0.00       0       0
 2000 247     9     6    0.0      0   0.00      0      0      0      0      0      0     0.0  0.000      0      0  0.000  0.000  0.000  0.000    0.00   0.00   0.00      0      0    0.0   0.00   0.00    0.0   0.00   0.00   0.00   0.00   0.00   0.00   0.00   0.00   0.00   0.00   0.00       0       0
 2000 248    10     7    0.0      0   0.00      0      0      0      0      0      0     0.0  0.000      0      0  0.000  0.000  0.000  0.000    0.00   0.00   0.00      0      0    0.0   0.00   0.00    0.0   0.00   0.00   0.00   0.00   0.00   0.00   0.00   0.00   0.00   0.00   0.00       0       0
 2000 249    11     8    0.0      0   0.00      0      0      0      0      0      0     0.0  0.000      0      0  0.000  0.000  0.000  0.000    0.00   0.00   0.00      0      0    0.0   0.00   0.00    0.0   0.00   0.00   0.00   0.00   0.00   0.00   0.00   0.00   0.00   0.00   0.00       0       0
 2000 250    12     9    0.0      0   0.00      0      0      0      0      0      0     0.0  0.000      0      0  0.000  0.000  0.000  0.000    0.00   0.00   0.00      0      0    0.0   0.00   0.00    0.0   0.00   0.00   0.00   0.00   0.00   0.00   0.00   0.00   0.00   0.00   0.00       0       0
 2000 251    13    10    0.0      0   0.00      0      0      0      0      0      0     0.0  0.000      0      0  0.000  0.000  0.000  0.000    0.00   0.00   0.00      0      0    0.0   0.00   0.00    0.0   0.00   0.00   0.00   0.00   0.00   0.00   0.00   0.00   0.00   0.00   0.00       0       0
 2000 252    14    11    0.0      0   0.00      0      0      0      0      0      0     0.0  0.000      0      0  0.000  0.000  0.000  0.000    0.00   0.00   0.00      0      0    0.0   0.00   0.00    0.0   0.00   0.00   0.00   0.00   0.00   0.00   0.00   0.00   0.00   0.00   0.00       0       0
 2000 253    15    12    0.1      0   0.01      3      1      0      4      4      0     0.0  0.000      0      0  0.000  0.000  0.000  0.000    5.70   0.00   0.00      0      0  193.1   0.03   0.03    0.9   0.33   0.04   0.04   0.02   0.00   0.00   0.00   0.00   0.00   0.00   0.00       0       0
 2000 254    16    13    0.2      0   0.01      3      1      0      4      4      0     0.0  0.000      0      0  0.000  0.000  0.000  0.319    5.70   0.00   0.00      0      0  206.5   0.03   0.03    0.9   0.42   0.04   0.04   0.03   0.00   0.00   0.00   0.00   0.00   0.00   0.00       0       0
 2000 255    17    14    0.2      0   0.01      3      1      0      4      4      0     0.0  0.000      0      0  0.000  0.000  0.000  0.000    5.70   0.00   0.00      0      0  213.4   0.04   0.04    0.9   0.49   0.04   0.04   0.03   0.00   0.00   0.00   0.00   0.00   0.00   0.00       0       0
 2000 256    18    15    0.3      0   0.01      4      1      0      4      4      0     0.0  0.000      0      0  0.000  0.000  0.000  0.000    5.70   0.00   0.00      0      0  211.2   0.04   0.04    0.8   0.52   0.04   0.04   0.03   0.00   0.00   0.00   0.00   0.00   0.00   0.00       0       0
 2000 257    19    16    0.3      0   0.01      4      1      0      4      4      0     0.0  0.000      0      0  0.000  0.000  0.000  0.000    5.70   0.00   0.00      0      0  210.8   0.04   0.04    0.8   0.53   0.04   0.04   0.03   0.00   0.00   0.00   0.00   0.00   0.00   0.00       0       0
 2000 258    20    17    0.3      0   0.01      4      1      0      4      4      0     0.0  0.000      0      0  0.000  0.000  0.000  0.107    5.71   0.00   0.00      0      0  209.9   0.04   0.04    0.7   0.54   0.04   0.04   0.03   0.00   0.00   0.00   0.00   0.00   0.00   0.00       0       0
 2000 259    21    18    0.3      0   0.01      4      1      0      5      5      0     0.0  0.000      0      0  0.000  0.000  0.000  0.000    5.71   0.00   0.00      0      0  209.2   0.04   0.04    0.7   0.58   0.04   0.04   0.03   0.00   0.00   0.00   0.00   0.00   0.00   0.00       0       0
 2000 260    22    19    0.4      0   0.01      4      1      0      5      5      0     0.0  0.000      0      0  0.000  0.000  0.000  0.000    5.71   0.00   0.00      0      0  207.6   0.04   0.04    0.7   0.63   0.04   0.04   0.03   0.00   0.00   0.00   0.00   0.00   0.00   0.00       0       0
 2000 261    23    20    0.4      0   0.01      4      1      0      5      5      0     0.0  0.000      0      0  0.000  0.000  0.000  0.000    5.71   0.00   0.00      0      0  207.3   0.04   0.04    0.7   0.67   0.05   0.05   0.03   0.00   0.00   0.00   0.00   0.00   0.00   0.00       0       0
 2000 262    24    21    0.5      0   0.01      4      1      0      5      5      0     0.0  0.000      0      0  0.000  0.000  0.000  0.008    5.71   0.00   0.00      0      0  213.5   0.04   0.04    0.6   0.74   0.05   0.05   0.04   0.01   0.00   0.00   0.00   0.00   0.00   0.00       0       1
 2000 263    25    22    0.6      0   0.01      5      1      0      6      6      0     0.0  0.000      0      0  0.000  0.000  0.000  0.102    5.71   0.00   0.00      0      0  218.3   0.04   0.04    0.6   0.82   0.05   0.05   0.04   0.01   0.00   0.00   0.00   0.00   0.00   0.00       0       1
 2000 264    26    23    0.7      0   0.01      5      1      0      6      6      0     0.0  0.000      0      0  0.000  0.000  0.000  0.053    5.71   0.00   0.00      0      0  223.7   0.05   0.04    0.7   0.89   0.05   0.05   0.04   0.01   0.00   0.00   0.00   0.00   0.00   0.00       0       1
 2000 265    27    24    0.7      0   0.01      5      1      0      7      6      0     0.0  0.000      0      0  0.000  0.000  0.000  0.000    5.72   0.00   0.00      0      0  225.6   0.05   0.05    0.6   0.95   0.05   0.05   0.04   0.01   0.01   0.00   0.00   0.00   0.00   0.00       0       1
 2000 266    28    25    0.8      0   0.01      5      2      0      7      7      0     0.0  0.000      0      0  0.000  0.000  0.000  0.000    5.72   0.00   0.00      0      0  221.7   0.05   0.05    0.7   1.00   0.06   0.06   0.04   0.01   0.01   0.00   0.00   0.00   0.00   0.00       0       1
 2000 267    29    26    0.8      0   0.01      5      2      0      8      7      0     0.0  0.000      0      0  0.000  0.000  0.000  0.000    5.72   0.00   0.00      0      0  221.7   0.05   0.05    0.7   1.05   0.06   0.06   0.05   0.01   0.01   0.00   0.00   0.00   0.00   0.00       0       1
 2000 268    30    27    0.9      0   0.01      6      2      0      9      7      0     0.0  0.000      0      0  0.000  0.000  0.000  0.000    5.72   0.00   0.00      0      0  218.3   0.05   0.05    0.7   1.07   0.06   0.06   0.05   0.01   0.01   0.01   0.00   0.00   0.00   0.00       0       1
 2000 269    31    28    0.9      0   0.01      6      2      0      9      8      0     0.0  0.000      0      0  0.000  0.000  0.000  0.000    5.72   0.00   0.00      0      0  215.3   0.05   0.05    0.7   1.08   0.06   0.06   0.05   0.01   0.01   0.01   0.00   0.00   0.00   0.00       0       1
 2000 270    32    29    0.9      0   0.01      6      2      0     10      8      0     0.0  0.000      0      0  0.000  0.000  0.000  0.000    5.72   0.00   0.00      0      0  212.3   0.05   0.05    0.7   1.11   0.07   0.06   0.05   0.01   0.01   0.01   0.00   0.00   0.00   0.00       0       1
 2000 271    33    30    1.0      0   0.01      6      2      0     11      8      0     0.0  0.000      0      0  0.000  0.000  0.000  0.000    5.72   0.00   0.00      0      0  211.4   0.05   0.05    0.8   1.17   0.07   0.07   0.06   0.02   0.01   0.01   0.00   0.00   0.00   0.00       0       1
 2000 272    34    31    1.1      0   0.02      7      3      0     11     10      0     0.0  0.000      0      0  0.000  0.000  0.000  0.000    5.72   0.00   0.00      0      0  213.1   0.06   0.05    0.8   1.25   0.07   0.07   0.06   0.02   0.01   0.01   0.00   0.00   0.00   0.00       0       1
 2000 273    35    32    1.3      0   0.02      8      3      0     12     11      0     0.0  0.000      0      0  0.000  0.000  0.000  0.000    5.72   0.00   0.00      0      0  218.8   0.06   0.06    0.8   1.25   0.08   0.08   0.07   0.02   0.02   0.01   0.01   0.00   0.00   0.00       0       1
 2000 274    36    33    1.5      0   0.02      9      3      0     13     12      0     0.0  0.000      0      0  0.000  0.000  0.000  0.011    5.72   0.00   0.00      0      0  226.1   0.07   0.07    0.9   1.25   0.08   0.08   0.07   0.02   0.02   0.01   0.01   0.00   0.00   0.00       0       1
 2000 275    37    34    1.7      0   0.02     10      4      0     15     13      0     0.0  0.000      0      0  0.000  0.000  0.000  0.000    5.72   0.00   0.00      0      0  234.0   0.08   0.07    0.9   1.25   0.09   0.09   0.08   0.02   0.02   0.01   0.01   0.00   0.00   0.00       0       1
 2000 276    38    35    1.9      0   0.02     10      4      0     15     14      0     0.0  0.000      0      0  0.000  0.000  0.000  0.010    5.72   0.00   0.00      0      0  243.1   0.08   0.08    0.9   1.25   0.09   0.09   0.08   0.02   0.02   0.01   0.01   0.00   0.00   0.00       0       1
 2000 277    39    36    2.0      0   0.03     11      4      0     16     15      0     0.0  0.000      0      0  0.000  0.000  0.000  0.082    5.72   0.00   0.00      0      0  248.1   0.09   0.09    1.0   1.25   0.09   0.09   0.08   0.03   0.02   0.02   0.01   0.00   0.00   0.00       0       1
 2000 278    40    37    2.1      0   0.03     12      4      0     17     17      0     0.0  0.000      0      0  0.000  0.000  0.000  0.000    5.72   0.00   0.00      0      0  241.0   0.09   0.09    1.0   1.25   0.10   0.09   0.08   0.03   0.02   0.02   0.01   0.00   0.00   0.00       0       1
 2000 279    41    38    2.2      0   0.03     14      5      0     18     18      0     0.0  0.000      0      0  0.000  0.000  0.000  0.000    5.72   0.00   0.00      0      0  230.8   0.10   0.09    1.0   1.25   0.10   0.10   0.09   0.03   0.02   0.02   0.01   0.00   0.00   0.00       0       1
 2000 280    42    39    2.3      0   0.03     15      5      0     19     20      0     0.0  0.000      0      0  0.000  0.000  0.000  0.000    5.72   0.00   0.00      0      0  222.8   0.10   0.10    1.1   1.25   0.11   0.10   0.09   0.03   0.03   0.02   0.01   0.00   0.00   0.00       0       1
 2000 281    43    40    2.4      0   0.04     16      6      0     21     22      0     0.0  0.000      0      0  0.000  0.000  0.000  0.000    5.72   0.00   0.00      0      0  218.8   0.10   0.10    1.1   1.25   0.11   0.11   0.10   0.03   0.03   0.02   0.01   0.01   0.00   0.00       0       1
 2000 282    44    41    2.5      0   0.04     18      7      0     23     25      0     0.0  0.000      0      0  0.000  0.000  0.000  0.000    5.72   0.00   0.00      0      0  216.7   0.11   0.10    1.2   1.25   0.12   0.12   0.11   0.04   0.03   0.03   0.02   0.01   0.00   0.00       0       2
 2000 283    45    42    2.7      0   0.04     19      7      0     23     26      0     0.0  0.000      0      0  0.000  0.000  0.000  0.022    5.72   0.00   0.00      0      0  220.8   0.11   0.11    1.2   1.25   0.13   0.12   0.11   0.04   0.03   0.03   0.02   0.01   0.00   0.00       0       2
 2000 284    46    43    2.8      0   0.04     20      8      0     25     28      0     0.0  0.000      0      0  0.000  0.000  0.000  0.000    5.72   0.00   0.00      0      0  214.8   0.11   0.11    1.3   1.25   0.13   0.13   0.12   0.04   0.04   0.03   0.02   0.01   0.00   0.00       0       2
 2000 285    47    44    2.9      0   0.05     22      9      0     28     31      0     0.0  0.000      0      0  0.000  0.000  0.000  0.000    5.72   0.00   0.00      0      0  211.6   0.12   0.11    1.4   1.25   0.14   0.14   0.13   0.05   0.04   0.03   0.02   0.01   0.00   0.00       0       2
 2000 286    48    45    3.1      0   0.05     24     11      0     31     35      0     0.0  0.000      0      0  0.000  0.000  0.000  0.000    5.72   0.00   0.00      0      0  219.3   0.12   0.12    1.5   1.25   0.16   0.15   0.14   0.05   0.05   0.04   0.02   0.01   0.00   0.00       0       2
 2000 287    49    46    3.2      0   0.06     26     13      0     33     39      0     0.0  0.000      0      0  0.000  0.000  0.000  0.000    5.72   0.00   0.00      0      0  218.7   0.13   0.13    1.6   1.25   0.17   0.16   0.16   0.06   0.05   0.04   0.03   0.01   0.00   0.00       0       2
 2000 288    50    47    3.4      0   0.06     27     13      0     34     41      0     0.0  0.000      0      0  0.000  0.000  0.000  0.000    5.72   0.00   0.00      0      0  226.8   0.14   0.13    1.6   1.25   0.17   0.17   0.16   0.06   0.05   0.04   0.03   0.01   0.00   0.00       0       2
 2000 289    51    48    3.5      0   0.07     29     14      0     35     43      0     0.0  0.000      0      0  0.000  0.000  0.000  0.000    5.72   0.00   0.00      0      0  232.4   0.14   0.14    1.7   1.25   0.18   0.17   0.16   0.06   0.05   0.04   0.03   0.01   0.00   0.00       0       3
 2000 290    52    49    3.7      0   0.07     30     16      0     38     46      0     0.0  0.000      0      0  0.000  0.000  0.000  0.000    5.72   0.00   0.00      0      0  240.9   0.15   0.14    1.8   1.25   0.19   0.18   0.18   0.07   0.06   0.05   0.03   0.01   0.00   0.00       0       3
 2000 291    53    50    3.9      0   0.08     32     18      0     40     50      0     0.0  0.000      0      0  0.000  0.000  0.000  0.000    5.72   0.00   0.00      0      0  249.7   0.15   0.15    1.9   1.25   0.20   0.20   0.19   0.07   0.06   0.05   0.03   0.02   0.00   0.00       0       3
 2000 292    54    51    4.1      0   0.09     34     19      0     42     53      0     0.0  0.000      0      0  0.000  0.000  0.000  0.000    5.73   0.00   0.00      0      0  261.9   0.16   0.15    2.0   1.25   0.21   0.20   0.19   0.08   0.07   0.05   0.04   0.02   0.00   0.00       0       3
 2000 293    55    52    4.3      0   0.10     36     22      0     45     58      0     0.0  0.000      0      0  0.000  0.000  0.000  0.000    5.73   0.00   0.00      0      0  267.0   0.17   0.15    2.1   1.25   0.22   0.22   0.21   0.08   0.07   0.06   0.04   0.02   0.00   0.00       0       3
 2000 294    56    53    4.5      0   0.11     38     24      0     47     62      0     0.0  0.000      0      0  0.000  0.000  0.000  0.000    5.73   0.00   0.00      0      0  280.1   0.18   0.15    2.2   1.25   0.23   0.23   0.22   0.09   0.08   0.06   0.04   0.02   0.00   0.00       0       4
 2000 295    57    54    4.7      0   0.12     41     29      0     53     70      0     0.0  0.000      0      0  0.000  0.000  0.000  0.000    5.73   0.00   0.00      0      0  282.5   0.19   0.15    2.5   1.25   0.25   0.25   0.24   0.10   0.08   0.07   0.05   0.02   0.00   0.00       0       4
 2000 296    58    55    4.9      0   0.12     43     31      0     55     74      0     0.0  0.000      0      0  0.000  0.000  0.000  0.010    5.73   0.00   0.00      0      0  288.7   0.20   0.15    2.6   1.25   0.26   0.26   0.25   0.10   0.09   0.07   0.05   0.02   0.00   0.00       0       4
 2000 297    59    56    5.0      0   0.13     45     34      0     58     79      0     0.0  0.000      0      0  0.000  0.000  0.000  0.000    5.73   0.00   0.00      0      0  292.2   0.21   0.15    2.7   1.25   0.27   0.27   0.26   0.10   0.09   0.07   0.05   0.03   0.00   0.00       0       5
 2000 298    60    57    5.2      0   0.15     48     36      0     60     84      0     0.0  0.000      0      0  0.000  0.000  0.000  0.000    5.73   0.00   0.00      0      0  301.7   0.21   0.15    2.8   1.25   0.28   0.28   0.27   0.11   0.10   0.08   0.05   0.03   0.00   0.00       0       5
 2000 299    61    58    5.4      0   0.17     53     40      0     63     93      0     0.0  0.000      0      0  0.000  0.000  0.000  0.017    5.73   0.00   0.00      0      0  309.1   0.22   0.15    3.0   1.25   0.30   0.29   0.28   0.11   0.10   0.08   0.06   0.03   0.00   0.00       0       5
 2000 300    62    59    5.6      0   0.19     59     45      0     67    104      0     0.0  0.000      0      0  0.000  0.000  0.000  0.042    5.73   0.00   0.00      0      0  323.6   0.23   0.15    3.1   1.25   0.32   0.31   0.30   0.12   0.11   0.09   0.06   0.03   0.00   0.00       0       6
 2000 301    63    60    5.7      0   0.22     70     53      0     74    123      0     0.0  0.000      0      0  0.000  0.000  0.000  0.000    5.73   0.00   0.00      0      0  308.7   0.24   0.15    3.5   1.25   0.35   0.34   0.33   0.14   0.12   0.10   0.07   0.03   0.00   0.00       0       6
 2000 302    64    61    5.9      0   0.23     80     60      0     81    140      0     0.0  0.000      0      0  0.000  0.000  0.000  0.000    5.72   0.00   0.00      0      0  290.8   0.25   0.15    3.8   1.25   0.38   0.37   0.36   0.15   0.13   0.11   0.08   0.04   0.00   0.00       0       7
 2000 303    65    62    5.9      0   0.24     88     67      0     87    156      0     0.0  0.000      0      0  0.000  0.000  0.000  0.000    5.72   0.00   0.00      0      0  274.4   0.25   0.15    4.0   1.25   0.40   0.40   0.38   0.16   0.14   0.11   0.08   0.04   0.00   0.00       0       7
 2000 304    66    63    6.1      0   0.27    103     79      0     97    182      0     0.0  0.000      0      0  0.000  0.000  0.000  0.000    5.72   0.00   0.00      0      0  265.1   0.25   0.15    4.5   1.25   0.45   0.44   0.43   0.18   0.16   0.13   0.09   0.05   0.00   0.00       0       7
 2000 305    67    64    6.3      0   0.31    119     93      0    109    211      0     0.0  0.000      0      0  0.000  0.000  0.000  0.000    5.72   0.00   0.00      0      0  261.2   0.26   0.15    5.0   1.25   0.49   0.49   0.48   0.20   0.18   0.14   0.10   0.05   0.00   0.00       0       8
 2000 306    68    65    6.5      0   0.35    126     99      0    114    226      0     0.0  0.000      0      0  0.000  0.000  0.000  0.000    5.72   0.00   0.00      0      0  274.4   0.27   0.15    5.3   1.25   0.52   0.51   0.50   0.21   0.19   0.15   0.11   0.05   0.00   0.00       0       9
 2000 307    69    66    6.7      0   0.39    141    112      0    124    254      0     0.0  0.000      0      0  0.000  0.000  0.000  0.000    5.72   0.00   0.00      0      0  273.3   0.28   0.15    5.8   1.25   0.56   0.56   0.54   0.23   0.20   0.17   0.12   0.06   0.00   0.00       0       9
 2000 308    70    67    6.8      0   0.42    160    129      0    137    289      0     0.0  0.000      0      0  0.000  0.000  0.000  0.000    5.72   0.00   0.00      0      0  263.0   0.29   0.15    6.4   1.25   0.62   0.62   0.60   0.25   0.23   0.18   0.13   0.07   0.00   0.00       0      10
 2000 309    71    68    7.0      0   0.46    175    144      0    148    319      0     0.0  0.000      0      0  0.000  0.000  0.000  0.000    5.72   0.00   0.00      0      0  260.2   0.29   0.15    7.0   1.25   0.67   0.66   0.65   0.27   0.25   0.20   0.14   0.07   0.00   0.00       0      10
 2000 310    72    69    7.1      1   0.50    198    165      0    164    362      0     0.0  0.000      0      0  0.000  0.000  0.000  0.000    5.72   0.00   0.00      0      0  253.3   0.30   0.15    7.7   1.25   0.74   0.73   0.72   0.30   0.27   0.22   0.16   0.08   0.00   0.00       0      11
 2000 311    73    70    7.3      1   0.56    222    189      0    182    411      0     0.0  0.000      0      0  0.000  0.000  0.000  0.000    5.72   0.00   0.00      0      0  252.0   0.31   0.15    8.5   1.25   0.81   0.81   0.79   0.34   0.30   0.24   0.18   0.09   0.00   0.00       0      12
 2000 312    74    71    7.5      1   0.62    239    205      0    193    443      0     0.0  0.000      0      0  0.000  0.000  0.000  0.000    5.71   0.00   0.00      0      0  260.1   0.32   0.15    9.1   1.25   0.86   0.85   0.84   0.36   0.32   0.26   0.19   0.10   0.00   0.00       0      13
 2000 313    75    72    7.7      1   0.70    261    228      0    208    489      0     0.0  0.000      0      0  0.000  0.000  0.000  0.000    5.71   0.00   0.00      0      0  267.0   0.33   0.15    9.9   1.25   0.92   0.92   0.91   0.39   0.35   0.28   0.20   0.10   0.00   0.00       0      14
 2000 314    76    73    7.9      1   0.75    275    242      0    217    517      0     0.0  0.000      0      0  0.000  0.000  0.000  0.000    5.71   0.00   0.00      0      0  273.0   0.34   0.15   10.3   1.25   0.96   0.96   0.95   0.40   0.36   0.29   0.21   0.11   0.00   0.00       0      15
 2000 315    77    74    8.0      1   0.81    305    275      0    238    580      0     0.0  0.000      0      0  0.000  0.000  0.000  0.000    5.70   0.00   0.00      0      0  266.8   0.34   0.15   11.4   1.25   1.06   1.05   1.04   0.44   0.40   0.32   0.23   0.12   0.00   0.00       0      17
 2000 316    78    75    8.2      1   0.89    338    312      0    262    650      0     0.0  0.000      0      0  0.000  0.000  0.000  0.000    5.70   0.00   0.00      0      0  263.1   0.35   0.15   12.6   1.25   1.16   1.15   1.14   0.49   0.44   0.36   0.26   0.13   0.00   0.00       2      18
 2000 317    79    76    8.5      1   0.97    371    351      0    285    723      0     0.0  0.000      0      0  0.000  0.000  0.000  0.000    5.71   0.00   0.00      0      0  262.0   0.36   0.15   13.8   1.25   1.26   1.26   1.24   0.53   0.48   0.39   0.28   0.14   0.00   0.00       4      20
 2000 318    80    77    8.6      1   1.02    399    385      0    305    784      0     0.0  0.000      0      0  0.000  0.000  0.000  0.000    5.72   0.00   0.00      0      0  256.4   0.37   0.15   14.8   1.25   1.35   1.34   1.33   0.57   0.51   0.42   0.30   0.15   0.00   0.00       5      21
 2000 319    81    78    8.7      1   1.04    422    412      0    321    833      0     0.0  0.000      0      0  0.000  0.000  0.000  0.000    5.73   0.00   0.00      0      0  247.4   0.38   0.15   15.6   1.25   1.42   1.41   1.40   0.60   0.54   0.44   0.32   0.16   0.00   0.00       7      22
 2000 320    82    79    8.8      1   1.06    442    437      0    336    879      0     0.0  0.000      0      0  0.000  0.000  0.000  0.000    5.73   0.00   0.00      0      0  240.0   0.38   0.15   16.3   1.25   1.48   1.48   1.46   0.62   0.56   0.46   0.33   0.17   0.00   0.00       9      23
 2000 321    83    80    8.9      1   1.10    476    479      0    361    956      0     0.0  0.000      0      0  0.000  0.000  0.000  0.000    5.74   0.00   0.00      0      0  231.4   0.38   0.15   17.4   1.25   1.59   1.58   1.57   0.67   0.60   0.49   0.35   0.18   0.00   0.00      11      24
 2000 322    84    81    9.0      1   1.16    519    533      0    392   1052      0     0.0  0.000      0      0  0.000  0.000  0.000  0.000    5.75   0.00   0.00      0      0  223.9   0.39   0.15   18.7   1.25   1.72   1.71   1.70   0.73   0.65   0.53   0.39   0.20   0.00   0.00      14      26
 2000 323    85    82    9.2      1   1.23    566    594      0    425   1159      0     0.0  0.000      0      0  0.000  0.000  0.000  0.000    5.76   0.00   0.00      0      0  217.4   0.39   0.15   20.3   1.25   1.86   1.86   1.85   0.79   0.71   0.58   0.42   0.22   0.00   0.00      18      28
 2000 324    86    83    9.4      1   1.30    611    655      0    458   1266      0     0.0  0.000      0      0  0.000  0.000  0.000  0.000    5.77   0.00   0.00      0      0  213.3   0.40   0.15   22.2   1.25   2.00   2.00   1.99   0.85   0.77   0.63   0.45   0.23   0.00   0.00      23      31
 2000 325    87    84    9.6      3   1.35    652    710      0    488   1362      0     0.0  0.000      0      0  0.000  0.000  0.000  0.000    5.79   0.00   0.00      0      0  206.7   0.41   0.15   20.6   1.25   2.13   2.13   2.11   0.90   0.81   0.67   0.48   0.25   0.00   0.00      27      34
 2000 326    88    85    9.7      3   1.41    700    777      0    522   1478      0     0.0  0.000      1      6  0.000  0.000  0.000  0.000    5.80   0.00   0.00      0      1  201.0   0.42   0.15   19.2   1.25   2.28   2.28   2.26   0.97   0.87   0.71   0.51   0.27   0.00   0.00      33      38
 2000 327    89    86    9.9      3   1.48    742    839      0    553   1584      0     0.0  0.000      3     15  0.000  0.000  0.000  0.000    5.82   0.00   0.00      0      3  199.4   0.43   0.15   17.8   1.25   2.41   2.41   2.39   1.03   0.92   0.75   0.54   0.28   0.00   0.00      40      43
 2000 328    90    87   10.2      3   1.56    786    904      0    583   1697      0     0.0  0.000      8     35  0.000  0.000  0.000  0.000    5.84   0.00   0.00      0      8  198.1   0.44   0.15   16.6   1.25   2.54   2.54   2.53   1.08   0.97   0.80   0.57   0.30   0.00   0.00      48      49
 2000 329    91    88   10.3      3   1.60    813    946      0    603   1773      0     0.0  0.000     14     54  0.000  0.000  0.000  0.000    5.87   0.00   0.01      0     14  196.3   0.45   0.15   15.4   1.25   2.63   2.62   2.61   1.12   1.01   0.82   0.59   0.31   0.00   0.00      55      53
 2000 330    92    89   10.5      3   1.64    855   1010      0    633   1887      0     0.0  0.000     22     68  0.000  0.000  0.000  0.000    5.88   0.00   0.01      0     22  191.4   0.46   0.15   14.3   1.25   2.76   2.75   2.74   1.17   1.06   0.87   0.62   0.32   0.00   0.00      61      56
 2000 331    93    90   10.7      3   1.69    903   1093      0    672   2028      0     0.0  0.000     32     76  0.000  0.000  0.000  0.000    5.86   0.00   0.02      0     32  186.9   0.46   0.15   13.3   1.25   2.93   2.92   2.91   1.25   1.12   0.92   0.66   0.34   0.00   0.00      73      61
 2000 332    94    91   10.9      3   1.75    932   1135      0    687   2111      0     0.0  0.000     45     91  0.000  0.000  0.000  0.000    5.88   0.00   0.02      0     45  187.6   0.47   0.15   12.4   1.25   2.99   2.99   2.97   1.28   1.15   0.94   0.68   0.35   0.00   0.00      73      67
 2000 333    95    92   11.1      3   1.78    944   1157      0    696   2162      0     0.0  0.000     62    118  0.000  0.000  0.000  0.000    5.91   0.00   0.03      0     62  188.4   0.48   0.15   11.5   1.25   3.03   3.02   3.01   1.29   1.16   0.95   0.69   0.35   0.00   0.00      82      72
 2000 334    96    93   11.2      3   1.80    965   1197      0    712   2242      0     0.0  0.000     80    142  0.000  0.000  0.000  0.000    5.92   0.00   0.04      0     80  186.8   0.49   0.15   10.7   1.25   3.10   3.10   3.08   1.32   1.19   0.97   0.70   0.36   0.00   0.00      90      76
 2000 335    97    94   11.4      3   1.83   1007   1275      0    746   2381      0     0.0  0.000     99    162  0.000  0.000  0.000  0.000    5.83   0.00   0.04      0     99  181.7   0.50   0.15   12.3   1.25   3.24   3.24   3.23   1.38   1.25   1.02   0.74   0.38   0.00   0.00      98      79
 2000 336    98    95   11.5      3   1.86   1048   1350      0    776   2517      0     0.0  0.000    118    172  0.000  0.000  0.000  0.000    5.74   0.00   0.05      0    118  177.5   0.50   0.15   14.1   1.25   3.38   3.38   3.36   1.44   1.30   1.06   0.77   0.40   0.00   0.00     102      82
 2000 337    99    96   11.7      3   1.89   1094   1451      0    825   2687      0     0.0  0.000    141    177  0.000  0.000  0.118  0.000    5.61   0.00   0.05      0    141  172.8   0.51   0.15   16.2   1.25   3.59   3.59   3.57   1.53   1.38   1.13   0.82   0.42   0.00   0.00     107      87
 2000 338   100    97   11.9      3   1.92   1129   1528      0    856   2823      0     0.0  0.000    166    193  0.000  0.000  0.067  0.000    5.51   0.00   0.06      0    166  170.2   0.52   0.15   18.6   1.25   3.73   3.72   3.71   1.59   1.43   1.17   0.85   0.44   0.00   0.00     112      92
 2000 339   101    98   12.1      3   1.94   1146   1567      0    869   2907      0     0.0  0.000    195    217  0.000  0.000  0.000  0.000    5.48   0.00   0.07      0    195  169.5   0.53   0.15   21.0   1.25   3.79   3.78   3.77   1.62   1.46   1.19   0.86   0.44   0.00   0.00     117      97
 2000 340   102    99   12.3      3   1.95   1177   1658      0    913   3059      0     0.0  0.000    225    239  0.000  0.000  0.280  0.000    5.38   0.00   0.07      0    225  165.8   0.53   0.15   24.2   1.25   3.98   3.97   3.96   1.70   1.53   1.25   0.91   0.47   0.00   0.00     122     101
 2000 341   103   100   12.5      3   1.96   1208   1756      0    960   3222      0     0.0  0.000    258    266  0.000  0.000  0.282  0.000    5.26   0.00   0.08      0    258  162.2   0.54   0.15   28.1   1.25   4.18   4.18   4.17   1.79   1.61   1.32   0.95   0.49   0.00   0.00     127     107
 2000 342   104   101   12.7      3   1.98   1239   1839      0    995   3374      0     0.0  0.000    296    289  0.000  0.000  0.130  0.000    5.18   0.00   0.09      0    296  159.6   0.55   0.15   32.6   1.25   4.33   4.33   4.32   1.85   1.67   1.37   0.99   0.51   0.00   0.00     134     114
 2000 343   105   102   13.0      3   1.99   1259   1907      0   1018   3504      0     0.0  0.000    338    325  0.000  0.000  0.171  0.000    5.10   0.00   0.10      0    338  157.9   0.57   0.15   38.0   1.25   4.44   4.43   4.42   1.90   1.71   1.40   1.01   0.52   0.00   0.00     140     122
 2000 344   106   103   13.2      3   2.00   1286   1995      0   1055   3668      0     0.0  0.000    387    374  0.000  0.000  0.214  0.000    5.01   0.00   0.11      0    387  155.2   0.58   0.15   44.4   1.25   4.59   4.60   4.58   1.97   1.77   1.45   1.05   0.54   0.00   0.00     147     131
 2000 345   107   104   13.5      3   2.00   1307   2070      0   1077   3823      0     0.0  0.000    446    442  0.000  0.000  0.160  0.000    4.94   0.00   0.12      0    446  153.0   0.60   0.15   51.9   1.25   4.63   4.70   4.69   2.01   1.81   1.48   1.07   0.55   0.00   0.00     153     139
 2000 346   108   105   13.7      3   2.01   1321   2110      0   1087   3940      0     0.0  0.000    509    481  0.000  0.000  0.000  0.000    4.91   0.00   0.13      0    509  152.0   0.61   0.15   51.9   1.25   4.68   4.75   4.73   2.03   1.83   1.50   1.08   0.56   0.00   0.00     160     148
 2000 347   109   106   14.0      5   2.01   1341   2169      0   1100   4077      7     0.0  0.000    567    535  0.000  0.000  0.011  0.000    4.85   0.00   0.14      0    567  150.1   0.62   0.15   60.6   1.25   4.74   4.80   4.79   2.06   1.85   1.52   1.10   0.57   0.00   0.00     174     157
 2000 348   110   107   14.3      5   2.01   1361   2235      0   1113   4221     16     2.8  0.000    624    569  0.000  0.000  0.018  0.000    4.79   0.07   0.15      0    624  148.0   0.64   0.15   70.9   1.25   4.80   4.86   4.85   2.08   1.88   1.54   1.11   0.57   0.00   0.00     192     166
 2000 349   111   108   14.5      5   2.01   1376   2282      2   1124   4332     38     4.3  0.000    674    598  0.000  0.000  0.000  0.000    4.77   0.24   0.16      0    674  146.4   0.65   0.15   70.9   1.25   4.85   4.91   4.90   2.10   1.90   1.55   1.12   0.58   0.00   0.00     224     176
 2000 350   112   109   14.8      5   2.01   1389   2324      4   1134   4443     59     7.3  0.001    730    643  0.000  0.000  0.000  0.000    4.75   0.60   0.16      0    730  144.9   0.66   0.15   74.1   1.25   4.90   4.96   4.95   2.12   1.92   1.57   1.13   0.59   0.00   0.00     254     184
 2000 351   113   110   14.9      5   2.01   1403   2370      8   1146   4560     76    10.4  0.002    786    689  0.000  0.000  0.000  0.000    4.74   1.00   0.17      0    786  142.9   0.67   0.15   74.1   1.25   4.95   5.02   5.01   2.15   1.94   1.59   1.15   0.59   0.00   0.00     277     189
 2000 352   114   111   15.1      5   2.00   1422   2427     13   1161   4704     85    14.9  0.003    855    708  0.000  0.000  0.000  0.000    4.72   1.49   0.18      0    855  140.6   0.68   0.15   79.4   1.25   5.02   5.09   5.07   2.18   1.96   1.61   1.16   0.60   0.00   0.00     292     194
 2000 353   115   112   15.3      5   1.99   1442   2493     19   1178   4859    103    18.0  0.004    923    731  0.000  0.000  0.000  0.000    4.67   2.01   0.19      0    923  138.2   0.68   0.15   92.0   1.25   5.10   5.16   5.15   2.21   1.99   1.63   1.18   0.61   0.00   0.00     316     202
 2000 354   116   113   15.5      5   1.98   1456   2541     25   1189   5004    103    24.5  0.005   1007    760  0.000  0.000  0.000  0.000    4.65   2.52   0.20      0   1007  136.3   0.69   0.15  102.8   1.25   5.15   5.21   5.20   2.23   2.01   1.65   1.19   0.62   0.00   0.00     323     209
 2000 355   117   114   15.7      5   1.98   1472   2597     32   1202   5135    134    24.2  0.006   1066    781  0.000  0.000  0.000  0.000    4.64   3.04   0.21      0   1066  134.2   0.70   0.15  102.9   1.25   5.21   5.27   5.26   2.26   2.04   1.67   1.20   0.62   0.00   0.00     360     217
 2000 356   118   115   15.8      5   1.96   1460   2582     42   1194   5142    184    22.8  0.008   1100    806  0.000  0.000  0.000  0.000    4.62   3.81   0.21      0   1100  134.4   0.71   0.15  103.0   1.25   5.18   5.24   5.23   2.25   2.03   1.66   1.20   0.62   0.00   0.00     417     223
 2000 357   119   116   16.1      5   1.95   1467   2612     55   1199   5273    196    28.1  0.010   1194    826  0.000  0.000  0.000  0.000    4.61   4.61   0.23      0   1194  133.2   0.71   0.15  116.3   1.25   5.20   5.26   5.25   2.26   2.03   1.67   1.20   0.62   0.00   0.00     436     232
 2000 358   120   117   16.2      5   1.94   1454   2593     69   1192   5336    202    34.1  0.013   1289    875  0.000  0.000  0.000  0.000    4.59   5.34   0.24      0   1289  133.5   0.72   0.15  116.5   1.25   5.18   5.24   5.23   2.24   2.02   1.66   1.20   0.62   0.00   0.00     448     238
 2000 359   121   118   16.4      5   1.93   1458   2619     82   1196   5450    220    37.3  0.015   1373    894  0.000  0.000  0.000  0.000    4.57   5.98   0.25      0   1373  132.2   0.73   0.15  116.8   1.25   5.20   5.26   5.25   2.25   2.03   1.66   1.20   0.62   0.00   0.00     472     245
 2000 360   122   119   16.6      5   1.91   1460   2643     98   1198   5561    249    39.3  0.018   1458    918  0.000  0.000  0.000  0.000    4.56   6.69   0.26      0   1458  131.1   0.73   0.15  117.1   1.25   5.21   5.27   5.26   2.26   2.04   1.67   1.21   0.62   0.00   0.00     506     255
 2000 361   123   120   16.9      5   1.90   1460   2661    113   1199   5631    308    36.9  0.020   1510    955  0.000  0.000  0.000  0.000    4.53   7.52   0.27      0   1510  130.0   0.74   0.15  117.1   1.25   5.22   5.28   5.27   2.26   2.04   1.67   1.21   0.62   0.00   0.00     568     266
 2000 362   124   121   17.1      5   1.88   1445   2637    136   1188   5655    337    40.4  0.024   1574    997  0.000  0.000  0.000  0.000    4.51   8.64   0.28      0   1574  130.4   0.76   0.15  117.1   1.25   5.18   5.24   5.23   2.25   2.02   1.66   1.20   0.62   0.00   0.00     600     275
 2000 363   125   122   17.3      5   1.87   1429   2611    161   1179   5700    381    42.1  0.028   1660   1011  0.000  0.000  0.000  0.000    4.48   9.67   0.29      0   1660  130.8   0.76   0.15  117.1   1.25   5.15   5.21   5.19   2.23   2.01   1.65   1.19   0.61   0.00   0.00     646     283
 2000 364   126   123   17.3      5   1.86   1414   2587    188   1171   5786    381    49.4  0.033   1785   1047  0.000  0.000  0.000  0.000    4.46  10.55   0.31      0   1785  131.2   0.77   0.15  117.1   1.25   5.12   5.17   5.16   2.22   2.00   1.64   1.18   0.61   0.00   0.00     653     290
 2000 365   127   124   17.3      5   1.84   1412   2599    216   1172   5867    443    48.7  0.037   1856   1062  0.000  0.000  0.000  0.000    4.43  11.62   0.32      0   1856  130.4   0.78   0.15  117.2   1.25   5.12   5.18   5.17   2.22   2.00   1.64   1.18   0.61   0.00   0.00     712     298
 2000 366   128   125   17.3      5   1.83   1409   2609    247   1172   5927    527    46.9  0.042   1909   1077  0.000  0.000  0.000  0.000    4.41  12.95   0.32      0   1909  129.6   0.79   0.15  117.3   1.25   5.13   5.18   5.17   2.22   2.00   1.64   1.19   0.61   0.00   0.00     791     306
 2001 001   129   126   17.3      5   1.81   1403   2611    285   1169   6014    575    49.5  0.047   2000   1109  0.000  0.000  0.000  0.000    4.38  14.25   0.33      0   2000  129.1   0.80   0.15  118.2   1.25   5.12   5.18   5.17   2.22   2.00   1.64   1.18   0.61   0.00   0.00     839     315
 2001 002   130   127   17.3      5   1.80   1395   2608    326   1165   6077    645    50.5  0.054   2074   1131  0.000  0.000  0.000  0.000    4.35  15.71   0.34      0   2074  128.7   0.80   0.15  118.2   1.25   5.11   5.17   5.16   2.21   2.00   1.63   1.18   0.61   0.00   0.00     908     324
 2001 003   131   128   17.3      5   1.78   1386   2602    370   1161   6154    692    53.5  0.060   2166   1158  0.000  0.000  0.000  0.000    4.32  17.09   0.35      0   2166  128.5   0.80   0.15  118.2   1.25   5.09   5.15   5.14   2.21   1.99   1.63   1.18   0.61   0.00   0.00     957     333
 2001 004   132   129   17.3      5   1.76   1368   2571    417   1149   6191    741    56.3  0.067   2252   1180  0.000  0.000  0.000  0.000    4.29  18.51   0.36      0   2252  129.0   0.80   0.15  118.2   1.25   5.05   5.10   5.09   2.19   1.97   1.61   1.17   0.60   0.00   0.00    1007     343
 2001 005   133   130   17.3      5   1.75   1354   2553    469   1141   6238    808    58.0  0.075   2331   1189  0.000  0.000  0.000  0.000    4.26  20.10   0.37      0   2331  129.1   0.80   0.15  118.2   1.25   5.02   5.07   5.06   2.17   1.96   1.60   1.16   0.60   0.00   0.00    1073     353
 2001 006   134   131   17.3      5   1.73   1339   2532    523   1132   6259    902    57.9  0.084   2388   1193  0.000  0.000  0.000  0.000    4.22  21.89   0.38      0   2388  129.3   0.80   0.15  118.2   1.25   4.98   5.04   5.03   2.16   1.95   1.59   1.15   0.60   0.00   0.00    1160     364
 2001 007   135   132   17.3      5   1.71   1321   2503    589   1120   6274    942    62.6  0.094   2450   1215  0.000  0.000  0.000  0.010    4.19  24.06   0.39      0   2450  129.7   0.80   0.15  118.2   1.25   4.94   4.99   4.97   2.14   1.93   1.58   1.14   0.59   0.00   0.00    1196     374
 2001 008   136   133   17.3      5   1.70   1304   2476    659   1110   6299   1027    64.1  0.105   2520   1211  0.000  0.000  0.000  0.000    4.15  26.14   0.40      0   2520  130.2   0.80   0.15  118.2   1.25   4.90   4.96   4.93   2.12   1.92   1.57   1.13   0.59   0.00   0.00    1258     383
 2001 009   137   134   17.3      5   1.68   1286   2449    733   1101   6362   1091    67.2  0.115   2627   1220  0.000  0.000  0.000  0.000    4.11  27.90   0.41      0   2627  130.7   0.80   0.15  118.2   1.25   4.86   4.92   4.89   2.11   1.90   1.56   1.12   0.58   0.00   0.00    1302     392
 2001 010   138   135   17.3      5   1.67   1271   2425    813   1091   6378   1126    72.2  0.128   2682   1238  0.000  0.000  0.000  0.017    4.07  30.32   0.42      0   2682  131.1   0.80   0.15  118.2   1.25   4.84   4.89   4.84   2.09   1.89   1.54   1.12   0.58   0.00   0.00    1328     400
 2001 011   139   136   17.3      5   1.65   1255   2403    891   1085   6444   1199    74.3  0.138   2786   1232  0.000  0.000  0.000  0.000    4.02  31.99   0.43      0   2786  131.4   0.80   0.15  118.2   1.25   4.81   4.86   4.81   2.08   1.88   1.53   1.11   0.57   0.00   0.00    1371     406
 2001 012   140   137   17.3      5   1.63   1242   2387    967   1080   6531   1237    78.1  0.148   2903   1239  0.000  0.000  0.000  0.000    3.98  33.30   0.44      0   2903  131.6   0.80   0.15  118.3   1.25   4.79   4.85   4.79   2.08   1.87   1.53   1.11   0.57   0.00   0.00    1397     411
 2001 013   141   138   17.3      5   1.62   1225   2363   1054   1072   6603   1289    81.7  0.160   3015   1241  0.000  0.000  0.000  0.000    3.93  34.94   0.46      0   3015  132.0   0.80   0.15  118.5   1.25   4.76   4.81   4.76   2.06   1.86   1.52   1.10   0.57   0.00   0.00    1429     418
 2001 014   142   139   17.3      5   1.60   1207   2336   1148   1062   6623   1376    83.4  0.173   3080   1237  0.000  0.000  0.000  0.000    3.88  37.26   0.46      0   3080  132.5   0.80   0.15  118.5   1.25   4.72   4.77   4.72   2.05   1.84   1.51   1.09   0.56   0.00   0.00    1476     427
 2001 015   143   140   17.3      5   1.58   1189   2310   1251   1052   6670   1451    86.2  0.187   3172   1234  0.000  0.000  0.000  0.000    3.83  39.43   0.48      0   3172  133.0   0.80   0.15  118.5   1.25   4.68   4.73   4.68   2.03   1.83   1.49   1.08   0.56   0.00   0.00    1522     436
 2001 016   144   141   17.3      5   1.56   1171   2285   1357   1043   6726   1493    90.9  0.202   3271   1241  0.000  0.000  0.000  0.000    3.77  41.50   0.49      0   3271  133.4   0.80   0.15  118.5   1.25   4.64   4.69   4.64   2.01   1.81   1.48   1.07   0.55   0.00   0.00    1550     445
 2001 017   145   142   17.3      5   1.54   1153   2262   1463   1034   6732   1597    91.6  0.217   3317   1232  0.000  0.000  0.000  0.000    3.71  44.12   0.49      0   3317  133.8   0.80   0.15  118.5   1.25   4.61   4.66   4.61   2.00   1.80   1.47   1.07   0.55   0.00   0.00    1606     453
 2001 018   146   143   17.3      5   1.53   1136   2239   1558   1025   6746   1663    93.7  0.231   3371   1217  0.000  0.000  0.000  0.000    3.65  46.21   0.50      0   3371  134.3   0.80   0.15  118.5   1.25   4.57   4.62   4.57   1.98   1.79   1.46   1.06   0.55   0.00   0.00    1643     461
 2001 019   147   144   17.3      5   1.51   1119   2218   1661   1017   6771   1736    95.7  0.245   3434   1202  0.000  0.000  0.000  0.000    3.59  48.37   0.51      0   3434  134.6   0.80   0.15  118.5   1.25   4.54   4.59   4.54   1.97   1.77   1.45   1.05   0.54   0.00   0.00    1680     468
 2001 020   148   145   17.3      5   1.49   1103   2197   1788   1010   6846   1808    98.9  0.261   3546   1187  0.000  0.000  0.000  0.000    3.53  50.41   0.52      0   3546  135.1   0.80   0.15  118.5   1.25   4.51   4.56   4.51   1.95   1.76   1.44   1.04   0.54   0.00   0.00    1711     474
 2001 021   149   146   17.3      5   1.47   1088   2177   1914   1003   6927   1876   102.1  0.276   3662   1174  0.000  0.000  0.000  0.000    3.47  52.28   0.53      0   3662  135.4   0.80   0.15  118.6   1.25   4.48   4.53   4.49   1.94   1.75   1.43   1.04   0.54   0.00   0.00    1736     480
 2001 022   150   147   17.3      5   1.46   1073   2157   2008    995   6964   1937   103.7  0.288   3734   1162  0.000  0.000  0.000  0.000    3.41  53.76   0.54      0   3734  135.8   0.80   0.15  118.6   1.25   4.45   4.50   4.45   1.93   1.74   1.42   1.03   0.53   0.00   0.00    1755     487
 2001 023   151   148   17.3      5   1.44   1057   2139   2137    987   7039   1987   107.5  0.304   3844   1153  0.000  0.000  0.000  0.000    3.35  55.60   0.55      0   3844  136.2   0.80   0.15  118.6   1.25   4.42   4.47   4.42   1.91   1.73   1.41   1.02   0.53   0.00   0.00    1773     495
 2001 024   152   149   17.3      5   1.42   1042   2121   2259    979   7110   2044   110.5  0.318   3946   1141  0.000  0.000  0.000  0.000    3.28  57.26   0.56      0   3946  136.5   0.80   0.15  118.6   1.25   4.38   4.43   4.38   1.90   1.71   1.40   1.01   0.52   0.00   0.00    1791     503
 2001 025   153   150   17.3      5   1.41   1027   2104   2373    970   7171   2078   114.2  0.331   4040   1123  0.000  0.000  0.000  0.000    3.21  58.75   0.56      0   4040  136.9   0.80   0.15  118.6   1.25   4.35   4.39   4.35   1.88   1.70   1.39   1.00   0.52   0.00   0.00    1810     511
 2001 026   154   151   17.3      5   1.39   1013   2086   2472    961   7221   2092   118.2  0.342   4123   1109  0.000  0.000  0.000  0.000    3.14  59.96   0.57      0   4123  137.3   0.80   0.15  118.6   1.25   4.31   4.36   4.31   1.87   1.68   1.37   1.00   0.51   0.00   0.00    1823     520
 2001 027   155   152   17.3      5   1.37    998   2067   2536    952   7238   2106   120.5  0.350   4173   1089  0.000  0.000  0.000  0.000    3.08  60.79   0.58      0   4173  137.7   0.80   0.15  118.6   1.25   4.27   4.32   4.27   1.85   1.67   1.36   0.99   0.51   0.00   0.00    1837     527
 2001 028   156   153   17.3      5   1.36    986   2051   2594    946   7254   2116   122.6  0.358   4218   1055  0.000  0.000  0.000  0.000    3.02  61.50   0.58      0   4218  138.1   0.80   0.15  116.3   1.25   4.25   4.29   4.25   1.84   1.66   1.35   0.98   0.51   0.00   0.00    1848     535
 2001 029   157   154   17.3      5   1.35    974   2037   2707    940   7332   2120   127.7  0.369   4321   1041  0.000  0.000  0.000  0.000    2.97  62.63   0.59      0   4321  138.4   0.80   0.15  116.3   1.25   4.22   4.27   4.22   1.83   1.65   1.35   0.98   0.50   0.00   0.00    1856     541
 2001 030   158   155   17.3      7   1.33    969   2060   2801    933   7438   2120   132.1  0.377   4408   1028  0.000  0.000  0.388  0.000    2.89  63.54   0.59      0   4408  137.7   0.80   0.15  116.3   1.25   4.19   4.24   4.19   1.82   1.64   1.34   0.97   0.50   0.00   0.00    1863     547
 2001 031   159   156   17.3      7   1.06    769   1941   2902    925   7211   2120   136.9  0.402   4501   1012  0.000  0.000  0.221  0.000    2.79  64.47   0.62      0   4501  137.9   0.80   0.15  116.3   1.25   4.16   4.21   4.16   1.80   1.63   1.33   0.96   0.50   0.00   0.00    2169     555
 2001 032   160   157   17.3      7   0.84    608   1837   2971    917   7008   2120   140.2  0.424   4563    978  0.000  0.000  0.109  0.000    2.71  65.12   0.65      0   4563  138.5   0.80   0.15  116.3   1.25   4.12   4.17   4.13   1.79   1.61   1.32   0.95   0.49   0.00   0.00    2412     563
 2001 033   161   158   17.3      7   0.67    482   1754   3034    909   6854   2120   143.1  0.443   4618    963  0.000  0.000  0.000  0.000    2.63  65.69   0.67      0   4618  139.0   0.80   0.15  116.3   1.25   4.08   4.13   4.09   1.77   1.60   1.30   0.95   0.49   0.00   0.00    2604     571
 2001 034   162   159   17.3      7   0.53    383   1692   3086    902   6740   2120   145.6  0.458   4665    963  0.000  0.000  0.185  0.000    2.57  66.15   0.69      0   4665  139.2   0.80   0.15  116.3   1.25   4.03   4.10   4.06   1.76   1.59   1.29   0.94   0.48   0.00   0.00    2756     578
 2001 035   163   160   17.3      7   0.42    303   1639   3128    895   6643   2120   147.6  0.471   4701    963  0.000  0.000  0.000  0.000    2.51  66.54   0.71      0   4701  139.7   0.80   0.15  116.3   1.25   4.01   4.08   4.03   1.75   1.58   1.29   0.93   0.48   0.00   0.00    2877     584
 2001 036   164   161   17.3      7   0.34    241   1594   3158    888   6561   2120   149.0  0.481   4726    963  0.000  0.000  0.000  0.000    2.45  66.82   0.72      0   4726  140.2   0.80   0.15  109.3   1.25   3.98   4.05   4.00   1.73   1.56   1.28   0.93   0.48   0.00   0.00    2973     598
 2001 037   165   162   17.3      7   0.27    191   1558   3178    881   6490   2120   149.9  0.490   4741    963  0.000  0.000  0.000  0.000    2.40  67.03   0.73      0   4741  140.6   0.80   0.15  101.7   1.25   3.94   4.01   3.97   1.72   1.55   1.27   0.92   0.47   0.00   0.00    3049     612
 2001 038   166   163   17.3      7   0.21    152   1530   3181    873   6425   2120   150.1  0.495   4743    963  0.000  0.000  0.000  0.000    2.40  67.07   0.74      0   4743  141.1   0.80   0.15   94.6   1.25   3.91   3.98   3.94   1.71   1.54   1.26   0.91   0.47   0.00   0.00    3110     627
 2001 039   167   164   17.3      7   0.17    122   1506   3181    865   6371   2120   150.1  0.499   4743    963  0.000  0.000  0.000  0.007    2.40  67.07   0.74      0   4743  141.5   0.80   0.15   88.0   1.25   3.88   3.95   3.89   1.69   1.52   1.24   0.90   0.47   0.00   0.00    3158     641
 2001 040   168   165   17.3      7   0.14     97   1487   3181    858   6327   2120   150.1  0.503   4743    963  0.000  0.000  0.000  0.000    2.41  67.07   0.75      0   4743  141.9   0.80   0.15   81.8   1.25   3.84   3.91   3.86   1.68   1.51   1.23   0.89   0.46   0.00   0.00    3196     655
 2001 041   169   166   17.3      7   0.11     77   1471   3181    850   6291   2120   150.1  0.506   4743    963  0.000  0.000  0.000  0.000    2.42  67.07   0.75      0   4743  142.3   0.80   0.15   76.1   1.25   3.81   3.88   3.83   1.66   1.50   1.22   0.89   0.46   0.00   0.00    3227     668
 2001 042   170   167   17.3      8   0.09     62   1457   3181    843   6262   2120   150.1  0.508   4743    963  0.000  0.000  0.000  0.000    2.42  67.07   0.76      0   4743  142.7   0.80   0.15   70.7   1.25   3.78   3.84   3.79   1.65   1.48   1.21   0.88   0.45   0.00   0.00    3251     681

*DSSAT Cropping System Model Ver. 4.0.2.000               Aug 29, 2016; 09:16:37

*RUN   2        : UYSB                    
 MODEL          : CRGRO040 - Soybean         
 EXPERIMENT     : UYSB0405 SB    late to create DSS                             
 TREATMENT  1   : UYSB                    

@YEAR DOY   DAS   DAP   L#SD   GSTD   LAID   LWAD   SWAD   GWAD   RWAD   CWAD   G#AD    GWGD   HIAD   PWAD   P#AD   WSPD   WSGD   NSTD   EWSD    LN%D   SH%D   HIPD   PWDD   PWTD   SLAD   CHTD   CWID   NWAD   RDPD   RL1D   RL2D   RL3D   RL4D   RL5D   RL6D   RL7D   RL8D   RL9D   RL10   SNW0C   SNW1C
 2001 241     3     0    0.0      0   0.00      0      0      0      0      0      0     0.0  0.000      0      0  0.000  0.000  0.000  0.000    0.00   0.00   0.00      0      0    0.0   0.00   0.00    0.0   0.00   0.00   0.00   0.00   0.00   0.00   0.00   0.00   0.00   0.00   0.00       0       0
 2001 242     4     1    0.0      0   0.00      0      0      0      0      0      0     0.0  0.000      0      0  0.000  0.000  0.000  0.000    0.00   0.00   0.00      0      0    0.0   0.00   0.00    0.0   0.00   0.00   0.00   0.00   0.00   0.00   0.00   0.00   0.00   0.00   0.00       0       0
 2001 243     5     2    0.0      0   0.00      0      0      0      0      0      0     0.0  0.000      0      0  0.000  0.000  0.000  0.000    0.00   0.00   0.00      0      0    0.0   0.00   0.00    0.0   0.00   0.00   0.00   0.00   0.00   0.00   0.00   0.00   0.00   0.00   0.00       0       0
 2001 244     6     3    0.0      0   0.00      0      0      0      0      0      0     0.0  0.000      0      0  0.000  0.000  0.000  0.000    0.00   0.00   0.00      0      0    0.0   0.00   0.00    0.0   0.00   0.00   0.00   0.00   0.00   0.00   0.00   0.00   0.00   0.00   0.00       0       0
 2001 245     7     4    0.0      0   0.00      0      0      0      0      0      0     0.0  0.000      0      0  0.000  0.000  0.000  0.000    0.00   0.00   0.00      0      0    0.0   0.00   0.00    0.0   0.00   0.00   0.00   0.00   0.00   0.00   0.00   0.00   0.00   0.00   0.00       0       0
 2001 246     8     5    0.0      0   0.00      0      0      0      0      0      0     0.0  0.000      0      0  0.000  0.000  0.000  0.000    0.00   0.00   0.00      0      0    0.0   0.00   0.00    0.0   0.00   0.00   0.00   0.00   0.00   0.00   0.00   0.00   0.00   0.00   0.00       0       0
 2001 247     9     6    0.0      0   0.00      0      0      0      0      0      0     0.0  0.000      0      0  0.000  0.000  0.000  0.000    0.00   0.00   0.00      0      0    0.0   0.00   0.00    0.0   0.00   0.00   0.00   0.00   0.00   0.00   0.00   0.00   0.00   0.00   0.00       0       0
 2001 248    10     7    0.0      0   0.00      0      0      0      0      0      0     0.0  0.000      0      0  0.000  0.000  0.000  0.000    0.00   0.00   0.00      0      0    0.0   0.00   0.00    0.0   0.00   0.00   0.00   0.00   0.00   0.00   0.00   0.00   0.00   0.00   0.00       0       0
 2001 249    11     8    0.0      0   0.00      0      0      0      0      0      0     0.0  0.000      0      0  0.000  0.000  0.000  0.000    0.00   0.00   0.00      0      0    0.0   0.00   0.00    0.0   0.00   0.00   0.00   0.00   0.00   0.00   0.00   0.00   0.00   0.00   0.00       0       0
 2001 250    12     9    0.0      0   0.00      0      0      0      0      0      0     0.0  0.000      0      0  0.000  0.000  0.000  0.000    0.00   0.00   0.00      0      0    0.0   0.00   0.00    0.0   0.00   0.00   0.00   0.00   0.00   0.00   0.00   0.00   0.00   0.00   0.00       0       0
 2001 251    13    10    0.0      0   0.01      3      1      0      4      4      0     0.0  0.000      0      0  0.000  0.000  0.000  0.000    5.70   0.00   0.00      0      0  192.9   0.03   0.03    0.9   0.30   0.04   0.04   0.02   0.00   0.00   0.00   0.00   0.00   0.00   0.00       0       0
 2001 252    14    11    0.1      0   0.01      3      1      0      4      4      0     0.0  0.000      0      0  0.000  0.000  0.000  0.000    5.70   0.00   0.00      0      0  192.4   0.03   0.03    0.9   0.33   0.04   0.04   0.03   0.00   0.00   0.00   0.00   0.00   0.00   0.00       0       0
 2001 253    15    12    0.1      0   0.01      3      1      0      4      4      0     0.0  0.000      0      0  0.000  0.000  0.000  0.000    5.70   0.00   0.00      0      0  189.1   0.03   0.03    0.8   0.36   0.04   0.04   0.03   0.00   0.00   0.00   0.00   0.00   0.00   0.00       0       0
 2001 254    16    13    0.1      0   0.01      4      1      0      4      4      0     0.0  0.000      0      0  0.000  0.000  0.000  0.000    5.70   0.00   0.00      0      0  185.6   0.03   0.03    0.8   0.39   0.04   0.04   0.03   0.00   0.00   0.00   0.00   0.00   0.00   0.00       0       0
 2001 255    17    14    0.2      0   0.01      4      1      0      5      5      0     0.0  0.000      0      0  0.000  0.000  0.000  0.000    5.70   0.00   0.00      0      0  185.2   0.03   0.03    0.8   0.43   0.04   0.04   0.03   0.00   0.00   0.00   0.00   0.00   0.00   0.00       0       0
 2001 256    18    15    0.2      0   0.01      4      1      0      5      5      0     0.0  0.000      0      0  0.000  0.000  0.000  0.000    5.70   0.00   0.00      0      0  186.8   0.03   0.03    0.8   0.48   0.05   0.05   0.03   0.00   0.00   0.00   0.00   0.00   0.00   0.00       0       0
 2001 257    19    16    0.3      0   0.01      4      1      0      5      5      0     0.0  0.000      0      0  0.000  0.000  0.000  0.000    5.70   0.00   0.00      0      0  185.7   0.03   0.03    0.7   0.51   0.05   0.05   0.04   0.00   0.00   0.00   0.00   0.00   0.00   0.00       0       0
 2001 258    20    17    0.3      0   0.01      4      1      0      5      5      0     0.0  0.000      0      0  0.000  0.000  0.000  0.000    5.70   0.00   0.00      0      0  183.3   0.04   0.04    0.7   0.53   0.05   0.05   0.04   0.00   0.00   0.00   0.00   0.00   0.00   0.00       0       0
 2001 259    21    18    0.3      0   0.01      4      1      0      6      5      0     0.0  0.000      0      0  0.000  0.000  0.000  0.000    5.70   0.00   0.00      0      0  181.7   0.04   0.04    0.7   0.54   0.05   0.05   0.04   0.00   0.00   0.00   0.00   0.00   0.00   0.00       0       0
 2001 260    22    19    0.3      0   0.01      5      1      0      6      6      0     0.0  0.000      0      0  0.000  0.000  0.000  0.000    5.71   0.00   0.00      0      0  179.6   0.04   0.04    0.7   0.57   0.05   0.05   0.04   0.01   0.00   0.00   0.00   0.00   0.00   0.00       0       0
 2001 261    23    20    0.4      0   0.01      5      1      0      7      6      0     0.0  0.000      0      0  0.000  0.000  0.000  0.000    5.71   0.00   0.00      0      0  180.0   0.04   0.04    0.7   0.62   0.06   0.06   0.04   0.01   0.00   0.00   0.00   0.00   0.00   0.00       0       0
 2001 262    24    21    0.5      0   0.01      5      1      0      7      6      0     0.0  0.000      0      0  0.000  0.000  0.000  0.000    5.71   0.00   0.00      0      0  183.4   0.04   0.04    0.7   0.69   0.06   0.06   0.05   0.01   0.00   0.00   0.00   0.00   0.00   0.00       0       1
 2001 263    25    22    0.6      0   0.01      5      2      0      8      7      0     0.0  0.000      0      0  0.000  0.000  0.000  0.000    5.71   0.00   0.00      0      0  186.9   0.04   0.04    0.7   0.77   0.06   0.06   0.05   0.01   0.01   0.00   0.00   0.00   0.00   0.00       0       1
 2001 264    26    23    0.7      0   0.01      5      2      0      9      7      0     0.0  0.000      0      0  0.000  0.000  0.000  0.000    5.71   0.00   0.00      0      0  194.9   0.04   0.04    0.8   0.86   0.07   0.07   0.05   0.01   0.01   0.00   0.00   0.00   0.00   0.00       0       1
 2001 265    27    24    0.7      0   0.01      6      2      0      9      8      0     0.0  0.000      0      0  0.000  0.000  0.000  0.000    5.71   0.00   0.00      0      0  200.0   0.05   0.05    0.8   0.95   0.07   0.07   0.06   0.01   0.01   0.00   0.00   0.00   0.00   0.00       0       1
 2001 266    28    25    0.8      0   0.01      6      2      0     10      8      0     0.0  0.000      0      0  0.000  0.000  0.000  0.000    5.72   0.00   0.00      0      0  205.6   0.05   0.05    0.9   1.04   0.07   0.07   0.06   0.02   0.01   0.00   0.00   0.00   0.00   0.00       0       1
 2001 267    29    26    1.0      0   0.01      6      2      0     11      8      0     0.0  0.000      0      0  0.000  0.000  0.000  0.000    5.72   0.00   0.00      0      0  213.7   0.05   0.05    0.9   1.15   0.08   0.08   0.06   0.02   0.01   0.01   0.00   0.00   0.00   0.00       0       1
 2001 268    30    27    1.1      0   0.01      7      2      0     11      9      0     0.0  0.000      0      0  0.000  0.000  0.000  0.000    5.72   0.00   0.00      0      0  220.4   0.06   0.06    0.8   1.21   0.08   0.08   0.07   0.02   0.01   0.01   0.00   0.00   0.00   0.00       0       1
 2001 269    31    28    1.2      0   0.02      7      2      0     11      9      0     0.0  0.000      0      0  0.000  0.000  0.000  0.000    5.72   0.00   0.00      0      0  221.0   0.06   0.06    0.8   1.25   0.08   0.08   0.07   0.02   0.01   0.01   0.00   0.00   0.00   0.00       0       1
 2001 270    32    29    1.3      0   0.02      7      2      0     11     10      0     0.0  0.000      0      0  0.000  0.000  0.000  0.000    5.72   0.00   0.00      0      0  221.0   0.06   0.06    0.8   1.25   0.08   0.08   0.07   0.02   0.01   0.01   0.00   0.00   0.00   0.00       0       1
 2001 271    33    30    1.4      0   0.02      8      3      0     12     10      0     0.0  0.000      0      0  0.000  0.000  0.000  0.000    5.72   0.00   0.00      0      0  233.3   0.07   0.07    0.7   1.25   0.08   0.08   0.07   0.02   0.01   0.01   0.00   0.00   0.00   0.00       0       1
 2001 272    34    31    1.6      0   0.02      9      3      0     12     11      0     0.0  0.000      0      0  0.000  0.000  0.000  0.053    5.72   0.00   0.00      0      0  244.1   0.07   0.07    0.8   1.25   0.08   0.08   0.07   0.02   0.01   0.01   0.00   0.00   0.00   0.00       0       1
 2001 273    35    32    1.8      0   0.02      9      3      0     13     12      0     0.0  0.000      0      0  0.000  0.000  0.000  0.053    5.72   0.00   0.00      0      0  254.9   0.08   0.08    0.8   1.25   0.08   0.08   0.07   0.02   0.01   0.01   0.00   0.00   0.00   0.00       0       1
 2001 274    36    33    1.9      0   0.03     10      3      0     13     13      0     0.0  0.000      0      0  0.000  0.000  0.000  0.580    5.69   0.00   0.00      0      0  265.8   0.09   0.08    0.8   1.25   0.09   0.08   0.07   0.02   0.02   0.01   0.00   0.00   0.00   0.00       0       1
 2001 275    37    34    2.1      0   0.03     10      3      0     13     13      0     0.0  0.000      0      0  0.000  0.000  0.000  0.087    5.70   0.00   0.00      0      0  269.9   0.09   0.09    0.8   1.25   0.09   0.09   0.07   0.02   0.02   0.01   0.01   0.00   0.00   0.00       0       1
 2001 276    38    35    2.2      0   0.03     11      3      0     14     14      0     0.0  0.000      0      0  0.000  0.000  0.000  0.000    5.70   0.00   0.00      0      0  276.6   0.09   0.09    0.7   1.25   0.09   0.09   0.07   0.02   0.02   0.01   0.01   0.00   0.00   0.00       0       2
 2001 277    39    36    2.4      0   0.03     12      4      0     15     16      0     0.0  0.000      0      0  0.000  0.000  0.000  0.000    5.70   0.00   0.00      0      0  280.7   0.10   0.10    0.8   1.25   0.09   0.09   0.08   0.02   0.02   0.01   0.01   0.00   0.00   0.00       0       2
 2001 278    40    37    2.5      0   0.04     13      5      0     16     18      0     0.0  0.000      0      0  0.000  0.000  0.000  0.000    5.70   0.00   0.00      0      0  275.0   0.11   0.10    0.8   1.25   0.10   0.10   0.08   0.03   0.02   0.01   0.01   0.00   0.00   0.00       0       2
 2001 279    41    38    2.6      0   0.04     15      5      0     18     20      0     0.0  0.000      0      0  0.000  0.000  0.000  0.000    5.71   0.00   0.00      0      0  273.1   0.11   0.11    0.9   1.25   0.11   0.11   0.09   0.03   0.02   0.02   0.01   0.00   0.00   0.00       0       2
 2001 280    42    39    2.8      0   0.04     16      6      0     19     21      0     0.0  0.000      0      0  0.000  0.000  0.000  0.016    5.71   0.00   0.00      0      0  279.9   0.12   0.11    0.9   1.25   0.11   0.11   0.09   0.03   0.03   0.02   0.01   0.00   0.00   0.00       0       2
 2001 281    43    40    2.9      0   0.05     17      6      0     20     23      0     0.0  0.000      0      0  0.000  0.000  0.000  0.000    5.71   0.00   0.00      0      0  281.7   0.12   0.12    1.0   1.25   0.12   0.11   0.10   0.03   0.03   0.02   0.01   0.01   0.00   0.00       0       2
 2001 282    44    41    3.1      0   0.05     18      7      0     21     25      0     0.0  0.000      0      0  0.000  0.000  0.000  0.000    5.71   0.00   0.00      0      0  279.4   0.13   0.12    1.0   1.25   0.12   0.12   0.11   0.04   0.03   0.02   0.01   0.01   0.00   0.00       0       2
 2001 283    45    42    3.2      0   0.06     21      8      0     24     29      0     0.0  0.000      0      0  0.000  0.000  0.000  0.000    5.71   0.00   0.00      0      0  271.1   0.13   0.13    1.1   1.25   0.13   0.13   0.12   0.04   0.03   0.02   0.02   0.01   0.00   0.00       0       2
 2001 284    46    43    3.4      0   0.06     23     10      0     27     33      0     0.0  0.000      0      0  0.000  0.000  0.000  0.000    5.71   0.00   0.00      0      0  264.7   0.14   0.13    1.2   1.25   0.14   0.14   0.13   0.05   0.04   0.03   0.02   0.01   0.00   0.00       0       2
 2001 285    47    44    3.5      0   0.07     25     11      0     29     36      0     0.0  0.000      0      0  0.000  0.000  0.000  0.000    5.71   0.00   0.00      0      0  265.7   0.14   0.14    1.3   1.25   0.15   0.15   0.14   0.05   0.04   0.03   0.02   0.01   0.00   0.00       0       2
 2001 286    48    45    3.7      0   0.07     27     14      0     32     41      0     0.0  0.000      0      0  0.000  0.000  0.000  0.000    5.71   0.00   0.00      0      0  262.4   0.15   0.14    1.5   1.25   0.17   0.16   0.15   0.06   0.05   0.04   0.02   0.01   0.00   0.00       0       2
 2001 287    49    46    3.9      0   0.08     30     17      0     36     46      0     0.0  0.000      0      0  0.000  0.000  0.000  0.000    5.71   0.00   0.00      0      0  263.1   0.15   0.15    1.7   1.25   0.18   0.18   0.17   0.06   0.06   0.04   0.03   0.01   0.00   0.00       0       3
 2001 288    50    47    4.0      0   0.08     31     18      0     38     49      0     0.0  0.000      0      0  0.000  0.000  0.000  0.008    5.72   0.00   0.00      0      0  272.2   0.16   0.15    1.7   1.25   0.19   0.19   0.18   0.07   0.06   0.04   0.03   0.01   0.00   0.00       0       3
 2001 289    51    48    4.2      0   0.09     33     20      0     40     53      0     0.0  0.000      0      0  0.000  0.000  0.000  0.028    5.72   0.00   0.00      0      0  283.0   0.17   0.15    1.9   1.25   0.20   0.19   0.19   0.07   0.06   0.05   0.03   0.02   0.00   0.00       0       3
 2001 290    52    49    4.4      0   0.10     36     24      0     44     59      0     0.0  0.000      0      0  0.000  0.000  0.000  0.036    5.72   0.00   0.00      0      0  287.5   0.18   0.15    2.1   1.25   0.22   0.21   0.20   0.08   0.07   0.05   0.04   0.02   0.00   0.00       0       4
 2001 291    53    50    4.6      0   0.11     39     28      0     48     66      0     0.0  0.000      0      0  0.000  0.000  0.000  0.000    5.72   0.00   0.00      0      0  293.3   0.19   0.15    2.3   1.25   0.24   0.23   0.22   0.09   0.08   0.06   0.04   0.02   0.00   0.00       0       4
 2001 292    54    51    4.8      0   0.12     42     34      0     55     76      0     0.0  0.000      0      0  0.000  0.000  0.000  0.000    5.72   0.00   0.00      0      0  294.9   0.20   0.15    2.6   1.25   0.27   0.26   0.25   0.10   0.09   0.07   0.05   0.02   0.00   0.00       0       4
 2001 293    55    52    5.1      0   0.14     48     38      0     59     87      0     0.0  0.000      0      0  0.000  0.000  0.000  0.000    5.72   0.00   0.00      0      0  297.2   0.21   0.15    2.8   1.25   0.29   0.28   0.27   0.11   0.10   0.07   0.05   0.03   0.00   0.00       0       5
 2001 294    56    53    5.2      0   0.15     54     43      0     63     97      0     0.0  0.000      0      0  0.000  0.000  0.000  0.000    5.72   0.00   0.00      0      0  283.1   0.22   0.15    3.0   1.25   0.30   0.30   0.28   0.11   0.10   0.08   0.06   0.03   0.00   0.00       0       5
 2001 295    57    54    5.3      0   0.16     61     47      0     68    109      0     0.0  0.000      0      0  0.000  0.000  0.000  0.000    5.72   0.00   0.00      0      0  267.9   0.22   0.15    3.2   1.25   0.32   0.32   0.30   0.12   0.11   0.09   0.06   0.03   0.00   0.00       0       5
 2001 296    58    55    5.4      0   0.18     69     53      0     73    123      0     0.0  0.000      0      0  0.000  0.000  0.000  0.000    5.72   0.00   0.00      0      0  257.7   0.23   0.15    3.5   1.25   0.35   0.34   0.33   0.13   0.12   0.09   0.07   0.03   0.00   0.00       0       5
 2001 297    59    56    5.6      0   0.20     80     62      0     81    141      0     0.0  0.000      0      0  0.000  0.000  0.000  0.000    5.72   0.00   0.00      0      0  252.9   0.23   0.15    3.9   1.25   0.38   0.37   0.36   0.15   0.13   0.10   0.07   0.04   0.00   0.00       0       6
 2001 298    60    57    5.8      0   0.23     92     71      0     89    163      0     0.0  0.000      0      0  0.000  0.000  0.000  0.000    5.72   0.00   0.00      0      0  255.8   0.24   0.15    4.3   1.25   0.42   0.41   0.40   0.16   0.15   0.12   0.08   0.04   0.00   0.00       0       6
 2001 299    61    58    6.0      0   0.27     98     76      0     93    174      0     0.0  0.000      0      0  0.000  0.000  0.000  0.017    5.72   0.00   0.00      0      0  273.9   0.25   0.15    4.5   1.25   0.43   0.43   0.41   0.17   0.15   0.12   0.09   0.04   0.00   0.00       0       7
 2001 300    62    59    6.2      0   0.30    104     81      0     96    186      0     0.0  0.000      0      0  0.000  0.000  0.000  0.064    5.72   0.00   0.00      0      0  287.5   0.26   0.15    4.7   1.25   0.45   0.44   0.42   0.18   0.16   0.13   0.09   0.05   0.00   0.00       0       8
 2001 301    63    60    6.4      0   0.34    112     88      0    101    199      0     0.0  0.000      0      0  0.000  0.000  0.000  0.040    5.72   0.00   0.00      0      0  304.9   0.27   0.15    5.0   1.25   0.47   0.46   0.44   0.19   0.17   0.13   0.10   0.05   0.00   0.00       0       9
 2001 302    64    61    6.6      0   0.39    120     95      0    106    215      0     0.0  0.000      0      0  0.000  0.000  0.000  0.055    5.71   0.00   0.00      0      0  321.7   0.28   0.15    5.3   1.25   0.50   0.48   0.45   0.20   0.18   0.14   0.10   0.05   0.00   0.00       0      10
 2001 303    65    62    6.8      0   0.42    137    110      0    118    247      0     0.0  0.000      0      0  0.000  0.000  0.000  0.000    5.71   0.00   0.00      0      0  308.8   0.29   0.15    5.8   1.25   0.55   0.53   0.51   0.22   0.20   0.16   0.11   0.06   0.00   0.00       0      11
 2001 304    66    63    7.0      1   0.46    156    128      0    132    285      0     0.0  0.000      0      0  0.000  0.000  0.000  0.000    5.71   0.00   0.00      0      0  295.2   0.30   0.15    6.4   1.25   0.61   0.59   0.57   0.25   0.22   0.17   0.13   0.07   0.00   0.00       0      12
 2001 305    67    64    7.1      1   0.50    178    149      0    148    328      0     0.0  0.000      0      0  0.000  0.000  0.000  0.000    5.70   0.00   0.00      0      0  283.2   0.31   0.15    7.2   1.25   0.68   0.66   0.63   0.28   0.25   0.20   0.14   0.07   0.00   0.00       0      12
 2001 306    68    65    7.3      1   0.54    198    169      0    162    367      0     0.0  0.000      0      0  0.000  0.000  0.000  0.000    5.70   0.00   0.00      0      0  273.6   0.31   0.15    7.8   1.25   0.74   0.72   0.70   0.30   0.27   0.22   0.16   0.08   0.00   0.00       0      13
 2001 307    69    66    7.4      1   0.58    222    193      0    179    414      0     0.0  0.000      0      0  0.000  0.000  0.000  0.000    5.69   0.00   0.00      0      0  262.6   0.32   0.15    8.6   1.25   0.81   0.79   0.77   0.33   0.30   0.24   0.17   0.09   0.00   0.00       0      14
 2001 308    70    67    7.6      1   0.63    248    220      0    197    468      0     0.0  0.000      0      0  0.000  0.000  0.000  0.000    5.69   0.00   0.00      0      0  254.1   0.33   0.15    9.5   1.25   0.89   0.87   0.85   0.37   0.33   0.26   0.19   0.10   0.00   0.00       0      14
 2001 309    71    68    7.8      1   0.70    279    252      0    218    531      0     0.0  0.000      0      0  0.000  0.000  0.000  0.000    5.69   0.00   0.00      0      0  249.7   0.33   0.15   10.6   1.25   0.98   0.96   0.94   0.41   0.37   0.29   0.21   0.11   0.00   0.00       0      16
 2001 310    72    69    8.0      1   0.77    298    273      0    231    571      0     0.0  0.000      0      0  0.000  0.000  0.000  0.000    5.69   0.00   0.00      0      0  257.5   0.34   0.15   11.3   1.25   1.04   1.02   1.00   0.43   0.39   0.31   0.23   0.12   0.00   0.00       0      17
 2001 311    73    70    8.1      1   0.80    309    286      0    238    595      0     0.0  0.000      0      0  0.000  0.000  0.000  0.025    5.71   0.00   0.00      0      0  258.6   0.35   0.15   11.5   1.25   1.07   1.05   1.02   0.45   0.40   0.32   0.23   0.12   0.00   0.00       1      19
 2001 312    74    71    8.3      1   0.85    333    314      0    255    647      0     0.0  0.000      0      0  0.000  0.000  0.000  0.000    5.71   0.00   0.00      0      0  254.7   0.36   0.15   12.4   1.25   1.15   1.12   1.09   0.48   0.43   0.35   0.25   0.13   0.00   0.00       3      20
 2001 313    75    72    8.5      1   0.90    361    348      0    276    708      0     0.0  0.000      0      0  0.000  0.000  0.000  0.003    5.68   0.00   0.00      0      0  249.9   0.37   0.15   14.2   1.25   1.24   1.22   1.18   0.52   0.47   0.37   0.27   0.14   0.00   0.00       6      22
 2001 314    76    73    8.7      1   0.97    380    373      0    290    753      0     0.0  0.000      0      0  0.000  0.000  0.000  0.020    5.66   0.00   0.00      0      0  255.7   0.38   0.15   15.1   1.25   1.30   1.28   1.24   0.55   0.49   0.39   0.29   0.15   0.00   0.00       8      24
 2001 315    77    74    8.9      1   1.04    421    426      0    320    847      0     0.0  0.000      0      0  0.000  0.000  0.000  0.000    5.64   0.00   0.00      0      0  246.3   0.39   0.15   16.6   1.25   1.43   1.41   1.37   0.60   0.54   0.43   0.32   0.16   0.00   0.00      11      26
 2001 316    78    75    9.1      1   1.11    464    479      0    348    942      0     0.0  0.000      0      0  0.000  0.000  0.000  0.000    5.68   0.00   0.00      0      0  240.0   0.40   0.15   18.2   1.25   1.55   1.53   1.49   0.65   0.59   0.47   0.34   0.18   0.00   0.00      11      28
 2001 317    79    76    9.3      3   1.18    485    506      0    361    991      0     0.0  0.000      0      0  0.000  0.000  0.000  0.000    5.72   0.00   0.00      0      0  242.3   0.41   0.15   16.9   1.25   1.61   1.59   1.54   0.68   0.61   0.49   0.36   0.18   0.00   0.00      13      31
 2001 318    80    77    9.5      3   1.25    521    557      0    387   1078      0     0.0  0.000      1      5  0.000  0.000  0.000  0.000    5.74   0.00   0.00      0      1  239.3   0.42   0.15   15.7   1.25   1.72   1.70   1.66   0.73   0.65   0.53   0.38   0.20   0.00   0.00      18      35
 2001 319    81    78    9.7      3   1.31    564    619      0    419   1188      0     0.0  0.000      4     27  0.000  0.000  0.000  0.000    5.76   0.00   0.00      0      4  231.6   0.43   0.15   14.6   1.25   1.85   1.83   1.79   0.78   0.70   0.57   0.41   0.21   0.00   0.00      23      38
 2001 320    82    79    9.8      3   1.34    597    666      0    442   1273      0     0.0  0.000     10     43  0.000  0.000  0.000  0.000    5.78   0.00   0.01      0     10  224.3   0.43   0.15   13.6   1.25   1.95   1.93   1.89   0.83   0.74   0.60   0.44   0.23   0.00   0.00      28      41
 2001 321    83    80    9.9      3   1.38    637    726      0    472   1378      0     0.0  0.000     16     52  0.000  0.000  0.000  0.000    5.79   0.00   0.01      0     16  216.5   0.44   0.15   12.6   1.25   2.08   2.06   2.02   0.88   0.79   0.64   0.47   0.24   0.00   0.00      34      44
 2001 322    84    81   10.1      3   1.43    680    797      0    506   1500      0     0.0  0.000     24     60  0.000  0.000  0.000  0.000    5.78   0.00   0.02      0     24  209.7   0.45   0.15   12.7   1.25   2.23   2.21   2.17   0.95   0.85   0.69   0.50   0.26   0.00   0.00      43      47
 2001 323    85    82   10.4      3   1.48    719    861      0    535   1614      0     0.0  0.000     34     74  0.000  0.000  0.000  0.000    5.72   0.00   0.02      0     34  206.2   0.46   0.15   14.7   1.25   2.36   2.34   2.29   1.00   0.90   0.73   0.53   0.27   0.00   0.00      47      50
 2001 324    86    83   10.6      3   1.54    765    939      0    569   1751      0     0.0  0.000     47     99  0.000  0.000  0.000  0.000    5.59   0.00   0.03      0     47  201.3   0.47   0.15   17.1   1.25   2.51   2.48   2.44   1.06   0.96   0.78   0.56   0.29   0.00   0.00      52      54
 2001 325    87    84   10.9      3   1.59    789    983      0    586   1837      0     0.0  0.000     65    127  0.000  0.000  0.000  0.000    5.55   0.00   0.04      0     65  201.8   0.48   0.15   17.1   1.25   2.58   2.56   2.52   1.10   0.99   0.80   0.58   0.30   0.00   0.00      57      59
 2001 326    88    85   11.1      3   1.64    826   1053      0    614   1965      0     0.0  0.000     86    148  0.000  0.000  0.000  0.000    5.45   0.00   0.04      0     86  198.6   0.50   0.15   20.0   1.25   2.71   2.69   2.65   1.15   1.04   0.84   0.61   0.32   0.00   0.00      61      63
 2001 327    89    86   11.4      3   1.67    860   1132      0    652   2102      0     0.0  0.000    110    181  0.000  0.000  0.143  0.000    5.32   0.00   0.05      0    110  194.2   0.51   0.15   23.4   1.25   2.86   2.85   2.81   1.22   1.10   0.89   0.65   0.34   0.00   0.00      66      69
 2001 328    90    87   11.5      3   1.68    868   1150      0    655   2155      0     0.0  0.000    137    213  0.000  0.000  0.000  0.052    5.29   0.00   0.06      0    137  193.6   0.52   0.15   23.4   1.25   2.85   2.83   2.83   1.24   1.11   0.90   0.66   0.34   0.00   0.00      70      75
 2001 329    91    88   11.6      3   1.69    885   1183      0    667   2230      0     0.0  0.000    163    229  0.000  0.000  0.000  0.000    5.27   0.00   0.07      0    163  191.1   0.53   0.15   23.5   1.25   2.90   2.89   2.89   1.26   1.13   0.92   0.67   0.35   0.00   0.00      72      77
 2001 330    92    89   11.8      3   1.70    892   1201      0    671   2287      0     0.0  0.000    195    234  0.000  0.000  0.000  0.019    5.23   0.00   0.09      0    195  190.8   0.53   0.15   23.8   1.25   2.93   2.91   2.90   1.27   1.14   0.92   0.68   0.35   0.00   0.00      76      82
 2001 331    93    90   12.0      3   1.70    920   1311      0    707   2462      0     0.0  0.000    231    259  0.000  0.000  0.458  0.000    5.06   0.00   0.09      0    231  184.7   0.54   0.15   27.3   1.25   3.08   3.07   3.05   1.34   1.20   0.97   0.71   0.37   0.00   0.00      80      86
 2001 332    94    91   12.2      3   1.70    944   1394      0    740   2604      0     0.0  0.000    267    279  0.000  0.000  0.339  0.000    4.95   0.00   0.10      0    267  180.2   0.55   0.15   31.0   1.25   3.23   3.21   3.19   1.40   1.26   1.02   0.74   0.38   0.00   0.00      84      90
 2001 333    95    92   12.3      3   1.70    966   1469      0    767   2740      0     0.0  0.000    305    302  0.000  0.000  0.277  0.000    4.86   0.00   0.11      0    305  176.4   0.56   0.15   35.3   1.25   3.35   3.33   3.31   1.45   1.31   1.06   0.77   0.40   0.00   0.00      87      94
 2001 334    96    93   12.5      3   1.70    967   1476      0    768   2787      0     0.0  0.000    344    326  0.000  0.000  0.000  0.000    4.84   0.00   0.12      0    344  175.9   0.56   0.15   35.9   1.25   3.35   3.34   3.32   1.45   1.31   1.06   0.77   0.40   0.00   0.00      90      97
 2001 335    97    94   12.6      3   1.70    991   1566      0    800   2943      0     0.0  0.000    387    334  0.000  0.000  0.338  0.000    4.73   0.00   0.13      0    387  171.8   0.57   0.15   41.0   1.25   3.49   3.48   3.46   1.51   1.36   1.10   0.80   0.42   0.00   0.00      93     101
[...]
 2014 329    91    88   12.4      3   1.67    881   1270      0    663   2446      0     0.0  0.000    295    330  0.000  0.000  0.000  0.000    5.49   0.00   0.12      0    295  189.0   0.58   0.15    9.0   1.25   2.91   2.87   2.87   1.24   1.12   0.91   0.66   0.34   0.00   0.00      95      83
 2014 330    92    89   12.6      3   1.67    899   1342      0    678   2590      0     0.0  0.000    348    379  0.000  0.000  0.178  0.000    5.36   0.00   0.13      0    348  185.2   0.59   0.15   10.5   1.25   2.97   2.93   2.93   1.27   1.14   0.93   0.67   0.35   0.00   0.00     100      88
 2014 331    93    90   12.8      3   1.66    922   1453      0    692   2780      0     0.0  0.000    405    419  0.000  0.000  0.418  0.000    5.19   0.00   0.15      0    405  179.7   0.61   0.15   12.2   1.25   3.04   2.99   2.99   1.29   1.17   0.95   0.69   0.36   0.00   0.00     104      92
 2014 332    94    91   13.1      3   1.65    939   1550      0    701   2952      0     0.0  0.000    463    448  0.000  0.000  0.396  0.000    5.05   0.00   0.16      0    463  175.5   0.62   0.15   14.2   1.25   3.07   3.03   3.04   1.31   1.18   0.96   0.70   0.36   0.00   0.00     109      97
 2014 333    95    92   13.3      5   1.64    955   1621      0    718   3098      0     0.0  0.000    521    481  0.000  0.000  0.237  0.000    4.95   0.00   0.17      0    521  172.1   0.63   0.15   16.6   1.25   3.10   3.11   3.11   1.35   1.21   0.99   0.72   0.37   0.00   0.00     114     102
 2014 334    96    93   13.5      5   1.64    949   1616      0    715   3147      8     0.0  0.000    581    525  0.000  0.000  0.000  0.000    4.93   0.00   0.18      0    581  172.3   0.64   0.15   17.5   1.25   3.09   3.11   3.11   1.34   1.21   0.99   0.72   0.37   0.00   0.00     125     108
 2014 335    97    94   13.7      5   1.62    941   1605      1    710   3172     37     1.5  0.000    626    549  0.000  0.000  0.000  0.020    4.90   0.09   0.20      0    626  172.7   0.65   0.15   17.5   1.25   3.08   3.08   3.08   1.34   1.21   0.98   0.71   0.37   0.00   0.00     154     113
 2014 336    98    95   13.9      5   1.61    932   1591      3    704   3196     67     4.9  0.001    673    564  0.000  0.000  0.000  0.023    4.88   0.49   0.21      0    673  173.1   0.66   0.15   17.6   1.25   3.06   3.05   3.05   1.33   1.20   0.98   0.71   0.37   0.00   0.00     183     119
 2014 337    99    96   14.1      5   1.60    948   1703      8    699   3391     77    10.6  0.002    741    586  0.000  0.000  0.409  0.000    4.73   1.10   0.22      0    741  169.0   0.67   0.15   20.3   1.25   3.04   3.03   3.03   1.32   1.19   0.97   0.70   0.36   0.00   0.00     195     123
 2014 338   100    97   14.3      5   1.59    956   1774     13    700   3543     86    15.6  0.004    814    642  0.000  0.000  0.250  0.000    4.62   1.64   0.23      0    814  166.3   0.68   0.15   23.4   1.25   3.05   3.03   3.03   1.32   1.19   0.97   0.71   0.36   0.00   0.00     207     128
 2014 339   101    98   14.5      5   1.58    964   1852     19    700   3709     95    20.4  0.005    893    683  0.000  0.000  0.287  0.000    4.52   2.16   0.24      0    893  163.5   0.69   0.15   27.0   1.25   3.05   3.03   3.04   1.32   1.19   0.97   0.71   0.36   0.00   0.00     219     132
 2014 340   102    99   14.8      5   1.56    970   1907     26    702   3844    115    22.6  0.007    967    705  0.000  0.000  0.182  0.000    4.43   2.69   0.25      0    967  161.4   0.70   0.15   31.2   1.25   3.06   3.04   3.04   1.33   1.20   0.98   0.71   0.36   0.00   0.00     240     138
 2014 341   103   100   15.0      5   1.56    976   1941     34    707   3954    137    24.7  0.009   1037    748  0.000  0.000  0.003  0.000    4.39   3.25   0.26      0   1037  159.3   0.71   0.15   36.0   1.25   3.08   3.07   3.07   1.34   1.21   0.98   0.71   0.37   0.00   0.00     263     144
 2014 342   104   101   15.3      5   1.54    975   1974     44    700   4045    178    24.5  0.011   1096    791  0.000  0.000  0.123  0.000    4.32   3.98   0.27      0   1096  158.3   0.72   0.15   41.4   1.25   3.06   3.04   3.04   1.33   1.20   0.98   0.71   0.36   0.00   0.00     301     150
 2014 343   105   102   15.6      5   1.53    973   1985     56    699   4112    230    24.4  0.014   1154    834  0.000  0.000  0.000  0.000    4.28   4.87   0.28      0   1154  157.3   0.74   0.15   47.5   1.25   3.05   3.04   3.04   1.33   1.19   0.97   0.71   0.36   0.00   0.00     348     156
 2014 344   106   103   15.8      5   1.52    962   1964     73    693   4139    293    25.0  0.018   1213    869  0.000  0.000  0.000  0.000    4.25   6.05   0.29      0   1213  157.9   0.75   0.15   54.3   1.25   3.03   3.01   3.01   1.32   1.19   0.97   0.70   0.36   0.00   0.00     403     162
 2014 345   107   104   16.0      5   1.51    961   1983     95    690   4256    317    30.0  0.022   1312    904  0.000  0.000  0.000  0.000    4.20   7.23   0.31      0   1312  157.1   0.76   0.15   61.9   1.25   3.02   3.00   3.00   1.31   1.18   0.96   0.70   0.36   0.00   0.00     427     166
 2014 346   108   105   16.2      5   1.50    948   1954    118    684   4296    341    34.8  0.028   1394    951  0.000  0.000  0.000  0.000    4.19   8.50   0.32      0   1394  157.9   0.77   0.15   61.9   1.25   2.99   2.98   2.98   1.30   1.17   0.96   0.69   0.36   0.00   0.00     449     171
 2014 347   109   106   16.5      5   1.49    936   1929    143    677   4347    381    37.6  0.033   1482    973  0.000  0.000  0.000  0.000    4.16   9.65   0.34      0   1482  158.7   0.78   0.15   69.9   1.25   2.97   2.95   2.96   1.29   1.16   0.95   0.69   0.35   0.00   0.00     481     177
 2014 348   110   107   16.5      5   1.47    932   1938    171    672   4451    421    40.7  0.038   1582   1005  0.000  0.000  0.000  0.000    4.11  10.83   0.36      0   1582  158.2   0.79   0.15   78.5   1.25   2.95   2.94   2.94   1.28   1.15   0.94   0.68   0.35   0.00   0.00     512     183
 2014 349   111   108   16.5      5   1.46    925   1931    203    668   4524    486    41.7  0.045   1668   1031  0.000  0.000  0.000  0.000    4.08  12.14   0.37      0   1668  158.1   0.80   0.15   88.0   1.25   2.93   2.92   2.92   1.27   1.15   0.94   0.68   0.35   0.00   0.00     561     188
 2014 350   112   109   16.5      5   1.45    913   1902    239    663   4527    539    44.3  0.053   1712   1063  0.000  0.000  0.000  0.000    4.06  13.95   0.38      0   1712  159.0   0.80   0.15   88.0   1.25   2.91   2.90   2.90   1.27   1.14   0.93   0.67   0.35   0.00   0.00     600     192
 2014 351   113   110   16.5      5   1.44    900   1871    279    657   4577    578    48.2  0.061   1806   1078  0.000  0.000  0.000  0.000    4.04  15.42   0.39      0   1806  160.1   0.81   0.15   90.9   1.25   2.89   2.88   2.88   1.26   1.13   0.92   0.67   0.35   0.00   0.00     630     198
 2014 352   114   111   16.5      5   1.43    886   1839    320    651   4629    625    51.3  0.069   1903   1103  0.000  0.000  0.000  0.000    4.02  16.84   0.41      0   1903  161.1   0.82   0.15   91.0   1.25   2.87   2.86   2.86   1.25   1.12   0.92   0.66   0.34   0.00   0.00     663     203
 2014 353   115   112   16.5      5   1.42    873   1808    365    645   4678    689    53.0  0.078   1996   1124  0.000  0.000  0.000  0.000    3.99  18.29   0.43      0   1996  162.2   0.82   0.15   99.2   1.25   2.85   2.83   2.83   1.24   1.11   0.91   0.66   0.34   0.00   0.00     707     208
 2014 354   116   113   16.5      5   1.40    860   1778    415    639   4730    737    56.3  0.088   2092   1148  0.000  0.000  0.000  0.001    3.97  19.82   0.44      0   2092  163.2   0.82   0.15  102.2   1.25   2.82   2.81   2.81   1.23   1.11   0.90   0.65   0.34   0.00   0.00     741     213
 2014 355   117   114   16.5      5   1.39    848   1751    469    635   4751    809    58.0  0.099   2151   1163  0.000  0.000  0.000  0.000    3.95  21.82   0.45      0   2151  164.2   0.82   0.15  102.2   1.25   2.80   2.79   2.79   1.22   1.10   0.89   0.65   0.33   0.00   0.00     787     217
 2014 356   118   115   16.5      5   1.38    837   1726    525    631   4840    809    64.9  0.109   2276   1188  0.000  0.000  0.000  0.000    3.92  23.07   0.47      0   2276  165.0   0.82   0.15  102.2   1.25   2.79   2.78   2.78   1.21   1.09   0.89   0.64   0.33   0.00   0.00     792     221
 2014 357   119   116   16.5      5   1.37    826   1701    583    626   4888    893    65.3  0.119   2360   1188  0.000  0.000  0.000  0.000    3.90  24.70   0.48      0   2360  165.9   0.82   0.15  102.4   1.25   2.77   2.76   2.76   1.20   1.09   0.88   0.64   0.33   0.00   0.00     843     225
 2014 358   120   117   16.5      5   1.36    814   1675    647    621   4953    955    67.8  0.131   2464   1198  0.000  0.000  0.000  0.000    3.87  26.28   0.50      0   2464  166.9   0.82   0.15  103.0   1.25   2.75   2.74   2.74   1.20   1.08   0.88   0.64   0.33   0.00   0.00     881     229
 2014 359   121   118   16.5      5   1.35    801   1647    717    616   4981    998    71.8  0.144   2532   1215  0.000  0.000  0.000  0.000    3.84  28.30   0.51      0   2532  168.0   0.82   0.15  103.1   1.25   2.73   2.72   2.72   1.19   1.07   0.87   0.63   0.33   0.00   0.00     909     234
 2014 360   122   119   16.5      5   1.33    789   1619    791    609   4971   1069    74.0  0.159   2563   1217  0.000  0.000  0.000  0.014    3.81  30.86   0.52      0   2563  169.1   0.82   0.15  103.1   1.25   2.71   2.69   2.69   1.18   1.06   0.86   0.63   0.32   0.00   0.00     953     240
 2014 361   123   120   16.5      5   1.32    775   1590    869    604   4999   1151    75.5  0.174   2633   1211  0.000  0.000  0.000  0.000    3.77  33.02   0.53      0   2633  170.2   0.82   0.15  103.2   1.25   2.69   2.67   2.67   1.17   1.05   0.86   0.62   0.32   0.00   0.00    1001     245
 2014 362   124   121   16.5      5   1.30    761   1561    953    598   4983   1237    77.1  0.191   2661   1212  0.000  0.000  0.000  0.000    3.73  35.81   0.53      0   2661  171.4   0.82   0.15  103.2   1.25   2.66   2.64   2.64   1.16   1.04   0.85   0.62   0.32   0.00   0.00    1051     250
 2014 363   125   122   16.5      5   1.29    747   1532   1040    591   5008   1318    78.9  0.208   2729   1197  0.000  0.000  0.000  0.000    3.69  38.10   0.54      0   2729  172.6   0.82   0.15  103.2   1.25   2.64   2.62   2.62   1.15   1.03   0.84   0.61   0.31   0.00   0.00    1095     256
 2014 364   126   123   16.5      5   1.27    734   1507   1128    586   4986   1459    77.3  0.226   2745   1180  0.000  0.000  0.000  0.000    3.64  41.07   0.55      0   2745  173.7   0.82   0.15  103.2   1.25   2.62   2.59   2.60   1.14   1.02   0.83   0.60   0.31   0.00   0.00    1161     261
 2014 365   127   124   16.5      5   1.26    721   1480   1231    580   5039   1508    81.6  0.244   2838   1169  0.000  0.000  0.000  0.000    3.59  43.37   0.56      0   2838  174.8   0.82   0.15  103.2   1.25   2.59   2.57   2.57   1.13   1.02   0.83   0.60   0.31   0.00   0.00    1185     266
 2015 001   128   125   16.5      5   1.25    708   1457   1318    575   5059   1572    83.8  0.261   2893   1169  0.000  0.000  0.000  0.000    3.54  45.56   0.57      0   2893  175.8   0.82   0.15  103.2   1.25   2.57   2.55   2.55   1.12   1.01   0.82   0.59   0.31   0.00   0.00    1212     271
 2015 002   129   126   16.5      5   1.23    698   1437   1422    571   5132   1572    90.4  0.277   2997   1169  0.000  0.000  0.000  0.000    3.50  47.44   0.58      0   2997  176.7   0.82   0.15  103.2   1.25   2.56   2.54   2.54   1.11   1.00   0.82   0.59   0.31   0.00   0.00    1217     274
 2015 003   130   127   16.5      5   1.22    687   1416   1532    567   5196   1639    93.5  0.295   3093   1154  0.000  0.000  0.000  0.000    3.45  49.53   0.60      0   3093  177.7   0.82   0.15  105.2   1.25   2.54   2.52   2.52   1.10   1.00   0.81   0.59   0.30   0.00   0.00    1243     277
 2015 004   131   128   16.5      5   1.21    675   1393   1649    563   5254   1709    96.5  0.314   3186   1138  0.000  0.000  0.000  0.000    3.40  51.75   0.61      0   3186  178.8   0.82   0.15  105.2   1.25   2.52   2.50   2.50   1.10   0.99   0.81   0.58   0.30   0.00   0.00    1265     281
 2015 005   132   129   16.5      5   1.19    664   1375   1759    558   5318   1746   100.7  0.331   3278   1129  0.000  0.000  0.000  0.000    3.35  53.66   0.62      0   3278  179.6   0.82   0.15  105.2   1.25   2.51   2.49   2.49   1.09   0.98   0.80   0.58   0.30   0.00   0.00    1280     286
 2015 006   133   130   16.5      5   1.18    653   1355   1862    553   5366   1800   103.5  0.347   3358   1116  0.000  0.000  0.000  0.000    3.29  55.47   0.63      0   3358  180.6   0.82   0.15  105.2   1.25   2.48   2.46   2.46   1.08   0.97   0.79   0.57   0.30   0.00   0.00    1299     291
 2015 007   134   131   16.5      5   1.17    643   1338   1959    549   5416   1833   106.9  0.362   3435   1093  0.000  0.000  0.000  0.000    3.24  57.04   0.63      0   3435  181.5   0.82   0.15  105.2   1.25   2.47   2.45   2.45   1.07   0.97   0.79   0.57   0.29   0.00   0.00    1316     294
 2015 008   135   132   16.5      5   1.15    632   1318   2043    544   5452   1852   110.4  0.375   3501   1065  0.000  0.000  0.000  0.000    3.18  58.35   0.64      0   3501  182.5   0.82   0.15  105.2   1.25   2.45   2.43   2.43   1.06   0.96   0.78   0.57   0.29   0.00   0.00    1330     299
 2015 009   136   133   16.5      5   1.14    621   1298   2112    538   5478   1856   113.7  0.385   3559   1008  0.000  0.000  0.000  0.000    3.13  59.34   0.65      0   3559  183.6   0.82   0.15  105.2   1.25   2.42   2.40   2.40   1.05   0.95   0.77   0.56   0.29   0.00   0.00    1337     304
 2015 010   137   134   16.5      5   1.13    611   1280   2192    533   5523   1856   118.1  0.397   3632    988  0.000  0.000  0.000  0.000    3.07  60.37   0.66      0   3632  184.6   0.82   0.15  105.2   1.25   2.40   2.38   2.38   1.04   0.94   0.77   0.56   0.29   0.00   0.00    1342     309
 2015 011   138   135   16.5      5   1.12    602   1261   2252    529   5547   1856   121.3  0.406   3684    963  0.000  0.000  0.000  0.000    3.02  61.13   0.66      0   3684  185.7   0.82   0.15  105.2   1.25   2.38   2.36   2.36   1.03   0.93   0.76   0.55   0.28   0.00   0.00    1346     313
 2015 012   139   136   16.5      5   1.11    592   1244   2340    523   5602   1856   126.1  0.418   3765    917  0.000  0.000  0.000  0.000    2.96  62.16   0.67      0   3765  186.7   0.82   0.15  105.2   1.25   2.36   2.34   2.34   1.03   0.92   0.75   0.55   0.28   0.00   0.00    1351     318
 2015 013   140   137   16.5      5   1.09    583   1227   2389    519   5617   1856   128.7  0.425   3807    902  0.000  0.000  0.000  0.000    2.91  62.75   0.68      0   3807  187.7   0.82   0.15  105.2   1.25   2.34   2.32   2.32   1.02   0.92   0.75   0.54   0.28   0.00   0.00    1355     322
 2015 014   141   138   16.5      5   1.08    574   1211   2454    514   5651   1856   132.2  0.434   3866    880  0.000  0.000  0.000  0.000    2.86  63.48   0.68      0   3866  188.7   0.82   0.15  105.2   1.25   2.32   2.30   2.30   1.01   0.91   0.74   0.54   0.28   0.00   0.00    1359     326
 2015 015   142   139   16.5      5   1.07    566   1195   2520    510   5686   1856   135.7  0.443   3925    876  0.000  0.000  0.000  0.000    2.81  64.19   0.69      0   3925  189.7   0.82   0.15  105.2   1.25   2.30   2.28   2.28   1.00   0.90   0.73   0.53   0.27   0.00   0.00    1363     331
 2015 016   143   140   16.5      5   1.06    558   1181   2592    505   5731   1856   139.6  0.452   3992    859  0.000  0.000  0.000  0.000    2.76  64.93   0.70      0   3992  190.6   0.82   0.15  105.2   1.25   2.28   2.26   2.27   0.99   0.89   0.73   0.53   0.27   0.00   0.00    1366     335
 2015 017   144   141   16.5      7   1.05    555   1191   2662    500   5802   1856   143.4  0.459   4056    859  0.000  0.000  0.410  0.000    2.69  65.61   0.70      0   4056  189.9   0.82   0.15  105.2   1.25   2.26   2.24   2.24   0.98   0.89   0.72   0.52   0.27   0.00   0.00    1370     340
 2015 018   145   142   16.5      7   0.84    442   1133   2729    496   5693   1856   147.0  0.479   4118    844  0.000  0.000  0.377  0.000    2.60  66.27   0.72      0   4118  189.5   0.82   0.15  105.2   1.25   2.24   2.22   2.23   0.97   0.88   0.72   0.52   0.27   0.00   0.00    1545     344
 2015 019   146   143   16.5      7   0.67    349   1067   2789    492   5590   1856   150.2  0.499   4173    844  0.000  0.000  0.030  0.000    2.53  66.83   0.75      0   4173  190.9   0.82   0.15  105.2   1.25   2.22   2.21   2.21   0.97   0.87   0.71   0.51   0.27   0.00   0.00    1685     348
 2015 020   147   144   16.5      7   0.53    276   1014   2832    488   5502   1856   152.6  0.515   4212    844  0.000  0.000  0.000  0.000    2.48  67.24   0.77      0   4212  192.2   0.82   0.15  105.2   1.25   2.21   2.19   2.19   0.96   0.86   0.70   0.51   0.26   0.00   0.00    1795     352
 2015 021   148   145   16.5      7   0.42    219    978   2874    484   5446   1856   154.8  0.528   4249    844  0.000  0.000  0.236  0.000    2.43  67.62   0.78      0   4249  192.7   0.82   0.15  105.2   1.25   2.19   2.17   2.17   0.95   0.86   0.70   0.51   0.26   0.00   0.00    1883     355
 2015 022   149   146   16.5      7   0.34    174    943   2908    481   5396   1856   156.6  0.539   4280    844  0.000  0.000  0.000  0.000    2.38  67.94   0.79      0   4280  193.9   0.82   0.15  105.2   1.25   2.18   2.16   2.16   0.95   0.85   0.69   0.50   0.26   0.00   0.00    1952     358
 2015 023   150   147   16.5      7   0.27    137    913   2930    477   5349   1856   157.8  0.548   4299    844  0.000  0.000  0.000  0.000    2.34  68.17   0.80      0   4299  195.1   0.82   0.15  100.2   1.25   2.16   2.14   2.14   0.94   0.85   0.69   0.50   0.26   0.00   0.00    2007     367
 2015 024   151   148   16.5      7   0.21    109    888   2946    473   5308   1856   158.7  0.555   4311    844  0.000  0.000  0.000  0.000    2.30  68.34   0.81      0   4311  196.3   0.82   0.15   93.2   1.25   2.14   2.13   2.13   0.93   0.84   0.68   0.50   0.26   0.00   0.00    2050     378
 2015 025   152   149   16.5      7   0.17     86    867   2956    469   5272   1856   159.2  0.561   4318    844  0.000  0.000  0.000  0.000    2.27  68.46   0.82      0   4318  197.4   0.82   0.15   86.7   1.25   2.13   2.11   2.11   0.92   0.83   0.68   0.49   0.25   0.00   0.00    2084     388
 2015 026   153   150   16.5      7   0.14     69    850   2957    465   5237   1856   159.3  0.565   4319    844  0.000  0.000  0.000  0.000    2.28  68.48   0.82      0   4319  198.5   0.82   0.15   80.6   1.25   2.11   2.09   2.09   0.91   0.82   0.67   0.49   0.25   0.00   0.00    2112     399
 2015 027   154   151   16.5      7   0.11     55    835   2957    461   5208   1856   159.3  0.568   4319    844  0.000  0.000  0.000  0.000    2.29  68.48   0.83      0   4319  199.6   0.82   0.15   75.0   1.25   2.09   2.07   2.07   0.91   0.82   0.67   0.48   0.25   0.00   0.00    2133     409
 2015 028   155   152   16.5      7   0.09     43    822   2957    456   5184   1856   159.3  0.570   4318    844  0.000  0.000  0.000  0.003    2.30  68.48   0.83      0   4318  200.6   0.82   0.15   69.7   1.25   2.07   2.05   2.05   0.90   0.81   0.66   0.48   0.25   0.00   0.00    2151     418
 2015 029   156   153   16.5      8   0.07     35    812   2957    453   5165   1856   159.3  0.573   4318    844  0.000  0.000  0.000  0.000    2.31  68.48   0.84      0   4318  201.4   0.82   0.15   64.8   1.25   2.05   2.03   2.04   0.89   0.80   0.66   0.48   0.25   0.00   0.00    2164     426
