*PLANT C OUTPUT FILE

*DSSAT Cropping System Model Ver. 4.6.1.000 -release      NOV 11, 2016; 09:12:21
                                                                                
*RUN   1        : UYSB                      CRGRO046 UYSB1062    1              
 MODEL          : CRGRO046 - Soybean                                            
 EXPERIMENT     : UYSB1062 SN late to create DSS                                
 DATA PATH      :                                                               
 TREATMENT  1   : UYSB                      CRGRO046                            
  
@YEAR DOY   DAS   DAP   TWAD    PHAD    CMAD    CGRD    GRAD    MRAD    CHAD   CL%D   CS%D   TGNN   TGAV    GN%D    GL%D    GC%D
 2000 316     4     0      0  0.0000  0.0000  0.0000  0.0000  0.0000 0.00000  0.000  0.000 24.014 19.968  0.0000  0.0000  0.0000
 2000 317     5     1      0  0.0000  0.0000  0.0000  0.0000  0.0000 0.00000  0.000  0.000 24.582 21.466  0.0000  0.0000  0.0000
 2000 318     6     2      0  0.0000  0.0000  0.0000  0.0000  0.0000 0.00000  0.000  0.000 20.315 17.020  0.0000  0.0000  0.0000
 2000 319     7     3      0  0.0000  0.0000  0.0000  0.0000  0.0000 0.00000  0.000  0.000 14.872 11.971  0.0000  0.0000  0.0000
 2000 320     8     4      0  0.0000  0.0000  0.0000  0.0000  0.0000 0.00000  0.000  0.000 14.988 10.833  0.0000  0.0000  0.0000
 2000 321     9     5      0  0.0000  0.0000  0.0000  0.0000  0.0000 0.00000  0.000  0.000 20.254 14.451  0.0000  0.0000  0.0000
 2000 322    10     6      0  0.0000  0.0000  0.0000  0.0000  0.0000 0.00000  0.000  0.000 23.490 17.508  0.0000  0.0000  0.0000
 2000 323    11     7      8  0.0000  0.0005  0.0003  0.0001  0.0000 0.00000  3.947  7.890 25.430 19.017  0.0000  0.0000  0.0000
 2000 324    12     8      9  0.1921  0.0005  0.1202  0.0417  0.0141 0.00000  3.898  7.801 27.187 21.168  0.0000  0.0000  0.0000
 2000 325    13     9     10  0.1708  0.0004  0.1097  0.0385  0.0082 0.00000  3.872  7.756 19.830 15.996  0.0000  0.0000  0.0000
 2000 326    14    10     11  0.2278  0.0005  0.1471  0.0488  0.0129 0.00000  3.841  7.715 24.001 17.730  0.0000  0.0000  0.0000
 2000 327    15    11     13  0.2357  0.0008  0.1495  0.0489  0.0183 0.00000  3.795  7.647 26.367 21.565  0.0000  0.0000  0.0000
 2000 328    16    12     14  0.2698  0.0010  0.1679  0.0545  0.0263 0.00000  3.746  7.576 30.129 24.431  0.0000  0.0000  0.0000
 2000 329    17    13     15  0.1774  0.0007  0.1149  0.0374  0.0106 0.00000  3.720  7.539 19.478 16.790  0.0000  0.0000  0.0000
 2000 330    18    14     17  0.2722  0.0007  0.1788  0.0565  0.0141 0.00000  3.701  7.532 21.400 16.132  0.0000  0.0000  0.0000
 2000 331    19    15     19  0.3651  0.0011  0.2362  0.0733  0.0258 0.00000  3.670  7.509 25.795 20.240  0.0000  0.0000  0.0000
 2000 332    20    16     21  0.2319  0.0013  0.1471  0.0456  0.0213 0.00000  3.627  7.443 25.824 21.129  0.0000  0.0000  0.0000
 2000 333    21    17     22  0.1664  0.0012  0.0994  0.0391  0.0152 0.00000  3.607  7.365 20.672 19.274  0.0000  0.0000  0.0000
 2000 334    22    18     23  0.2454  0.0010  0.1493  0.0609  0.0152 0.00000  3.613  7.322 19.824 16.706  0.0000  0.0000  0.0000
 2000 335    23    19     26  0.4253  0.0010  0.2659  0.1015  0.0220 0.00000  3.630  7.324 20.854 16.481  0.0000  0.0000  0.0000
 2000 336    24    20     28  0.4592  0.0011  0.2900  0.1061  0.0244 0.00000  3.637  7.333 21.779 16.402  0.0000  0.0000  0.0000
 2000 337    25    21     33  0.6628  0.0016  0.4178  0.1466  0.0432 0.00000  3.634  7.353 25.114 19.558  0.0000  0.0000  0.0000
 2000 338    26    22     36  0.5994  0.0019  0.3769  0.1296  0.0437 0.00000  3.618  7.348 25.557 20.109  0.0000  0.0000  0.0000
 2000 339    27    23     39  0.4236  0.0018  0.2630  0.0967  0.0295 0.00000  3.605  7.316 20.807 18.154  0.0000  0.0000  0.0000
 2000 340    28    24     43  0.7640  0.0019  0.4796  0.1773  0.0425 0.00000  3.615  7.333 21.598 17.584  0.0000  0.0000  0.0000
 2000 341    29    25     49  0.9824  0.0027  0.6080  0.2188  0.0745 0.00000  3.613  7.344 27.782 21.043  0.0000  0.0000  0.0000
 2000 342    30    26     56  1.0816  0.0036  0.6626  0.2322  0.0993 0.00000  3.596  7.339 29.193 23.817  0.0000  0.0000  0.0000
 2000 343    31    27     62  1.0610  0.0044  0.6438  0.2213  0.1119 0.00000  3.567  7.316 30.375 25.214  0.0000  0.0000  0.0000
 2000 344    32    28     70  1.5002  0.0051  0.8948  0.3335  0.1517 0.00000  3.567  7.301 30.157 25.749  0.0000  0.0000  0.0000
 2000 345    33    29     80  1.5835  0.0051  0.9713  0.3477  0.1345 0.00000  3.561  7.308 27.592 23.005  0.0000  0.0000  0.0000
 2000 346    34    30     89  1.4936  0.0064  0.9065  0.3182  0.1493 0.00000  3.538  7.286 28.460 24.590  0.0000  0.0000  0.0000
 2000 347    35    31    100  1.9865  0.0067  1.2155  0.4185  0.1904 0.00000  3.524  7.299 30.301 24.389  0.0000  0.0000  0.0000
 2000 348    36    32    115  2.4325  0.0088  1.5801  0.4332  0.2715 0.00000  3.554  7.295 31.855 27.161  0.0000  0.0000  0.0000
 2000 349    37    33    130  2.5001  0.0098  1.5455  0.5181  0.2453 0.00000  3.549  7.288 28.362 25.030  0.0000  0.0000  0.0000
 2000 350    38    34    147  2.7638  0.0096  1.7709  0.5595  0.2321 0.00000  3.562  7.302 27.550 22.570  0.0000  0.0000  0.0000
 2000 351    39    35    161  2.5183  0.0061  1.3860  0.6448  0.1207 0.00000  3.530  7.327 19.597 15.548  0.0000  0.0000  0.0000
 2000 352    40    36    180  3.2803  0.0086  1.9614  0.8113  0.1885 0.00000  3.554  7.327 23.032 17.729  0.0000  0.0000  0.0000
 2000 353    41    37    206  4.3092  0.0128  2.5924  1.0239  0.3228 0.00000  3.577  7.316 27.073 21.340  0.0000  0.0000  0.0000
 2000 354    42    38    232  4.4029  0.0124  2.6938  1.0534  0.2798 0.00000  3.597  7.315 24.539 18.986  0.0000  0.0000  0.0000
 2000 355    43    39    265  5.5347  0.0162  3.3582  1.3080  0.4033 0.00000  3.611  7.310 26.820 20.944  0.0000  0.0000  0.0000
 2000 356    44    40    280  2.5990  0.0152  1.5775  0.6135  0.1970 0.00000  3.594  7.264 20.269 18.298  0.0000  0.0000  0.0000
 2000 357    45    41    321  6.9550  0.0220  4.1873  1.6228  0.5682 0.00000  3.602  7.259 27.752 22.772  0.0000  0.0000  0.0000
 2000 358    46    42    343  3.8517  0.0177  2.3600  0.9150  0.2552 0.00000  3.592  7.232 19.635 17.844  0.0000  0.0000  0.0000
 2000 359    47    43    392  8.1682  0.0207  5.1210  1.8903  0.4963 0.00000  3.632  7.256 24.278 18.832  0.0000  0.0000  0.0000
 2000 360    48    44    447  9.6199  0.0353  5.8429  2.0989  0.9416 0.00000  3.651  7.235 29.750 25.307  0.0000  0.0000  0.0000
 2000 361    49    45    517 11.5313  0.0000  6.7712  1.9924  1.3463 0.50950  5.297  8.670 33.183 28.023  0.0000  0.0000  0.0000
 2000 362    50    46    550  6.1095  0.0521  3.7726  1.2853  0.6344 0.00000  5.162  8.477 26.735 22.793  0.0000  0.0000  0.0000
 2000 363    51    47    609 10.1128  0.0488  6.2864  2.2267  0.7778 0.02610  5.037  8.400 24.681 21.133  0.0000  0.0000  0.0000
 2000 364    52    48    671 10.5172  0.0493  6.4863  2.3503  0.7460 0.05797  4.961  8.441 22.847 20.016  0.0000  0.0000  0.0000
 2000 365    53    49    779 17.1606  0.0563 11.0568  3.6837  1.1447 0.15294  4.934  8.699 24.639 20.446  0.0000  0.0000  0.0000
 2000 366    54    50    892 19.1737  0.0772 11.5411  4.2533  1.5657 0.22538  4.944  9.020 27.597 22.759  0.0000  0.0000  0.0000
 2001 001    55    51   1016 21.1892  0.0933 12.6302  4.6485  1.8190 0.31997  4.997  9.417 28.110 23.308  0.0000  0.0000  0.0000
 2001 002    56    52   1153 22.8313  0.1090 14.0416  4.7802  1.9796 0.43419  5.097  9.883 28.155 23.209  0.0000  0.0000  0.0000
 2001 003    57    53   1306 24.5824  0.1313 15.5276  4.8257  2.3759 0.56923  5.222 10.396 30.266 24.280  0.0000  0.0000  0.0000
 2001 004    58    54   1422 21.1781  0.1817 11.9991  4.2992  2.7314 0.52524  5.300 10.740 31.600 27.585  0.0000  0.0000  0.0000
 2001 005    59    55   1592 28.0410  0.1959 17.3808  5.2799  3.1567 0.86822  5.473 11.337 30.645 26.487  0.0000  0.0000  0.0000
 2001 006    60    56   1770 29.2456  0.2339 18.0770  5.3076  3.6050 1.02060  5.649 11.923 32.069 27.444  0.0000  0.0000  0.0000
 2001 007    61    57   1865 17.7168  0.2599 10.0511  3.4512  2.2874 0.64971  5.719 12.170 27.446 24.901  0.0000  0.0000  0.0000
 2001 008    62    58   2019 26.5591  0.2520 15.5456  5.3181  2.6295 1.07792  5.883 12.685 26.974 23.174  0.0000  0.0000  0.0000
 2001 009    63    59   2217 31.5316  0.2874 19.7821  5.4924  3.1715 1.54176  6.118 13.388 28.216 23.735  0.0000  0.0000  0.0000
 2001 010    64    60   2298 14.9322  0.2515  8.5542  2.9370  1.5302 0.72277  6.190 13.605 21.809 19.444  0.0000  0.0000  0.0000
 2001 011    65    61   2501 31.2169  0.2314 19.7517  5.9722  2.0116 1.66188  6.418 14.271 21.303 17.862  0.0000  0.0000  0.0000
 2001 012    66    62   2687 31.3001  0.2395 17.7960  6.6708  1.9629 1.64273  6.603 14.833 21.832 16.886  0.0000  0.0000  0.0000
 2001 013    67    63   2876 33.1757  0.3639 18.5769  6.8029  2.8632 1.80192  6.774 15.338 25.634 20.437  0.0000  0.0000  0.0000
 2001 014    68    64   3024 28.1253  0.5376 15.3748  5.2826  3.8360 1.54188  6.886 15.638 28.955 25.407  0.0000  0.0000  0.0000
 2001 015    69    65   3223 36.2128  0.5624 20.3023  6.8784  4.1974 2.08421  7.062 16.103 27.252 24.493  0.0000  0.0000  0.0000
 2001 016    70    66   3409 34.9356  0.6191 19.0697  6.6491  4.3883 2.00526  7.212 16.491 28.523 24.904  0.0000  0.0000  0.0000
 2001 017    71    67   3550 27.1803  0.6249 15.3307  5.0756  3.4900 1.46819  7.305 16.702 25.626 23.333  0.0000  0.0000  0.0000
 2001 018    72    68   3674 24.4092  0.6559 13.8693  4.4723  3.3607 1.20592  7.367 16.825 24.521 23.267  0.0000  0.0000  0.0000
 2001 019    73    69   3817 27.4697  0.6393 15.5205  5.2056  3.3731 1.40579  7.453 17.020 25.248 22.238  0.0000  0.0000  0.0000
 2001 020    74    70   4057 41.2107  0.5542 23.6489  7.5101  3.5717 2.64695  7.685 17.627 24.193 20.000  0.0000  0.0000  0.0000
 2001 021    75    71   4305 41.5826  0.5969 24.5440  7.8141  3.5589 2.65415  7.889 18.151 24.386 19.406  0.0000  0.0000  0.0000
 2001 022    76    72   4437 26.8587  0.1355 14.2217  4.9042  3.5224 1.20318  8.041 18.473 26.265 21.500  0.0000  0.0000  0.0000
 2001 023    77    73   4655 42.0519  0.9144 22.6157  7.9202  5.4126 2.43669  8.183 18.814 28.757 24.243  0.0000  0.0000  0.0000
 2001 024    78    74   4869 41.8468  0.9488 22.3779  7.8421  5.6393 2.34352  8.310 19.113 29.996 24.300  0.0000  0.0000  0.0000
 2001 025    79    75   5067 41.1260  1.0991 21.4780  7.6260  6.3548 2.13279  8.405 19.317 30.549 26.036  0.0000  0.0000  0.0000
 2001 026    80    76   5233 36.8270  1.1774 19.0750  6.7529  6.5339 1.53466  8.440 19.362 31.575 26.883  0.0000  0.0000  0.0000
 2001 027    81    77   5311 21.1869  0.0000 10.7458  3.6633  4.1512 0.39991  8.560 19.547 24.955 23.559  0.0000  0.0000  0.0000
 2001 028    82    78   5358 17.4066  0.9393  9.8719  3.3990  2.9771 0.00000  8.496 19.303 21.166 20.056  6.1768 19.5252 33.3698
 2001 029    83    79   5557 40.5111  0.9255 22.4193  8.2051  4.1149 1.76211  8.593 19.503 24.837 19.573  6.1784 19.3004 33.5844
 2001 030    84    80   5735 41.3369  1.0926 21.9676  8.4197  4.6769 1.86549  8.684 19.687 24.894 21.063  6.1853 19.6908 33.1510
 2001 031    85    81   5874 39.4445  1.3566 19.7083  8.2218  6.0212 1.22528  8.692 19.649 28.750 24.311  6.2976 20.1198 32.0202
 2001 032    86    82   5955 32.5459  1.4960 16.5454  6.7944  6.0733 0.13659  8.587 19.307 28.870 25.505  6.3906 20.2923 31.2661
 2001 033    87    83   6073 40.6733  1.5275 19.1892  8.7929  7.2462 0.81840  8.545 19.136 30.726 26.502  6.4707 20.3754 30.6825
 2001 034    88    84   6199 38.6057  1.2828 19.5241  9.0072  4.8750 0.43939  8.494 18.935 24.491 21.448  6.3742 20.2887 31.3723
 2001 035    89    85   6348 40.7255  1.2985 21.3485  9.2390  5.1551 0.61173  8.460 18.779 26.531 21.342  6.3228 20.2327 31.7500
 2001 036    90    86   6467 39.9700  1.4595 19.6725  9.5844  5.7808 0.00000  8.351 18.417 26.241 23.092  6.3149 20.2972 31.7347
 2001 037    91    87   6578 40.1354  1.4727 19.5337  9.5209  6.3909 0.00000  8.241 18.050 29.390 23.880  6.3247 20.3425 31.6279
 2001 038    92    88   6689 39.8535  1.6373 18.5790  9.1155  8.0744 0.00000  8.114 17.639 32.285 27.276  6.3926 20.3745 31.1716
 2001 039    93    89   6727 23.7584  1.5909 11.8469  5.3703  5.7809 0.00000  7.993 17.239 28.514 25.080  6.4068 20.3990 31.0584
 2001 040    94    90   6805 34.5133  1.5931 16.0994  8.1698  7.1450 0.00000  7.874 16.833 30.604 26.169  6.4338 20.4167 30.8721
 2001 041    95    91   6825 20.6197  1.6163 10.2998  4.5384  6.1848 0.00000  7.753 16.416 29.891 26.422  6.4588 20.4305 30.7020
 2001 042    96    92   6878 31.6578  1.5934 14.7100  7.4294  7.5115 0.00000  7.637 15.999 31.551 27.261  6.4891 20.4411 30.5021
 2001 043    97    93   6963 28.6550  1.1920 14.8466  7.7344  3.9972 0.00000  7.559 15.685 23.079 19.362  6.4412 20.2342 31.0084
 2001 044    98    94   7076 35.8314  1.2468 17.9983  9.4454  4.8886 0.00000  7.476 15.351 25.658 20.440  6.4052 20.1639 31.3035
 2001 045    99    95   7175 35.2895  1.3578 17.3771  9.1782  5.7398 0.00000  7.378 14.981 26.919 22.596  6.3858 20.1973 31.3913
 2001 046   100    96   7255 31.8874  1.3642 15.6964  8.4326  5.7242 0.00000  7.276 14.603 26.750 22.998  6.3732 20.2316 31.4360
 2001 047   101    97   7358 35.2285  1.2698 17.2505  9.5822  5.4356 0.00000  7.180 14.243 26.078 21.684  6.3541 20.2289 31.5582
 2001 048   102    98   7450 32.4681  0.8569 15.6614  8.6290  5.7077 0.13279  7.164 14.062 27.097 22.526  6.3760 20.1806 31.4691
 2001 049   103    99   7522 29.7195  1.0789 13.9709  7.4058  6.9812 0.09975  7.110 13.793 29.504 25.684  6.4099 20.1614 31.2769
 2001 050   104   100   7582 30.2974  0.9853 13.9033  7.5932  7.1032 0.11883  7.066 13.555 30.059 25.668  6.4423 20.1370 31.0986
 2001 051   105   101   7672 31.4273  0.9128 14.3821  8.1381  6.7309 0.12247  7.024 13.333 29.318 24.606  6.4641 20.1155 30.9836
 2001 052   106   102   7734 23.6041  1.1068 11.4148  5.7459  5.7782 0.05587  6.932 13.011 27.168 23.778  6.4679 20.1159 30.9596
 2001 053   107   103   7812 29.8527  0.9489 12.8790  7.4170  7.7645 0.12580  6.873 12.768 30.882 27.065  6.4992 20.0944 30.7858
 2001 054   108   104   7881 25.9590  0.9627 11.6535  6.4849  6.3954 0.09728  6.796 12.500 28.970 24.904  6.5123 20.0825 30.7157
 2001 055   109   105   7901 14.7751  1.1826  7.2356  2.9740  5.2368 0.01843  6.657 12.113 27.607 24.113  6.5112 20.0891 30.7161
 2001 056   110   106   7913 12.2939  1.1560  6.2746  2.3602  4.5625 0.00422  6.509 11.719 25.762 22.874  6.5059 20.0971 30.7412
 2001 057   111   107   7938 14.8102  1.1161  6.9278  3.0740  5.2369 0.02518  6.365 11.342 26.649 24.439  6.5069 20.1004 30.7313
 2001 058   112   108   7978 18.7269  1.0409  8.1354  4.2911  5.9742 0.04785  6.229 10.997 28.537 25.616  6.5139 20.0987 30.6892
 2001 059   113   109   8034 22.4291  0.9126  9.4365  5.5708  6.1974 0.07449  6.115 10.705 29.262 25.486  6.5238 20.0915 30.6350
 2001 060   114   110   8079 20.3326  0.9762  8.1560  4.7258  6.7649 0.05442  5.976 10.375 31.630 27.108  6.5346 20.0884 30.5706
 2001 061   115   111   8100 12.6817  0.9881  5.6227  2.6778  4.6313 0.02203  5.820 10.018 25.650 23.479  6.5333 20.0905 30.5764
 2001 062   116   112   8144 19.4633  0.8506  7.6289  4.6044  6.2677 0.07119  5.695  9.734 30.609 26.303  6.5434 20.0824 30.5211
 2001 063   117   113   8188 19.5016  0.8501  7.4855  4.6165  6.4291 0.06479  5.561  9.442 31.345 26.684  6.5531 20.0761 30.4670
 2001 064   118   114   8215 15.5876  0.8902  5.7790  3.3295  6.1738 0.04527  5.410  9.120 31.606 26.875  6.5600 20.0727 30.4275
 2001 065   119   115   8244 14.5137  0.8398  5.6811  3.2923  5.1156 0.04428  5.262  8.812 27.998 24.621  6.5628 20.0695 30.4129
 2001 066   120   116   8280 15.2464  0.8391  6.3011  3.7840  4.5419 0.02456  5.104  8.491 26.566 22.905  6.5601 20.0712 30.4281
 2001 067   121   117   8316 11.8413  0.0000  4.6946  1.5234  3.8000 0.50672  5.215  8.758 25.918 21.050  6.5122 20.1578 30.6411
 2001 068   122   118   8066 11.1349  0.9086  4.5237  2.2066  4.3424 0.00000  4.971  7.837 27.025 23.082  6.4969 20.1875 30.7071
 2001 069   123   119   7863  9.5811  0.7943  3.2737  1.3853  4.9579 0.00000  4.724  7.023 29.906 25.716  6.4800 20.2258 30.7739
 2001 070   124   120   7683  5.9897  0.6609  1.8174  0.6852  4.0902 0.00000  4.490  6.325 27.430 24.413  6.4796 20.2273 30.7750
 2001 071   125   121   7542  5.9384  0.5440  1.9032  0.8483  3.5549 0.00000  4.275  5.733 26.331 22.889  6.4785 20.2286 30.7808
 2001 072   126   122   7421  4.0474  0.4779  0.7924  0.2273  3.5335 0.00000  4.063  5.220 27.346 23.515  6.4781 20.2292 30.7824
 2001 073   127   123   7317  3.2054  0.4258  0.0000  0.0000  3.6627 0.00000  3.851  4.773 28.659 24.440  6.4781 20.2292 30.7824
 2001 074   128   124   7232  2.6191  0.3902  0.0000  0.0000  3.9008 0.00000  3.643  4.377 29.430 25.815  6.4781 20.2292 30.7824
 2001 075   129   125   7162  2.1727  0.3332  0.0000  0.0000  3.1932 0.00000  3.456  4.042 27.007 23.358  6.4781 20.2292 30.7824
 2001 076   130   126   7104  1.6013  0.2979  0.0000  0.0000  2.9456 0.00000  3.280  3.751 24.843 22.789  6.4781 20.2292 30.7824
 2001 077   131   127   7055  1.4124  0.2788  0.0000  0.0000  3.2757 0.00000  3.109  3.490 28.395 24.112  6.4781 20.2292 30.7824
 2001 078   132   128   7015  0.5743  0.2394  0.0000  0.0000  2.4871 0.00000  2.958  3.268 22.968 21.199  6.4781 20.2292 30.7824
 2001 079   133   129   6981  0.4564  0.2191  0.0000  0.0000  2.3738 0.00000  2.815  3.072 22.881 20.724  6.4781 20.2292 30.7824

*DSSAT Cropping System Model Ver. 4.6.1.000 -release      NOV 11, 2016; 09:12:21
                                                                                
*RUN   2        : UYSB                      CRGRO046 UYSB1062    1              
 MODEL          : CRGRO046 - Soybean                                            
 EXPERIMENT     : UYSB1062 SN late to create DSS                                
 DATA PATH      :                                                               
 TREATMENT  1   : UYSB                      CRGRO046                            
  
@YEAR DOY   DAS   DAP   TWAD    PHAD    CMAD    CGRD    GRAD    MRAD    CHAD   CL%D   CS%D   TGNN   TGAV    GN%D    GL%D    GC%D
 2001 316     4     0      0  0.0000  0.0000  0.0000  0.0000  0.0000 0.00000  0.000  0.000 25.963 21.022  0.0000  0.0000  0.0000
 2001 317     5     1      0  0.0000  0.0000  0.0000  0.0000  0.0000 0.00000  0.000  0.000 22.810 19.766  0.0000  0.0000  0.0000
 2001 318     6     2      0  0.0000  0.0000  0.0000  0.0000  0.0000 0.00000  0.000  0.000 23.253 20.567  0.0000  0.0000  0.0000
 2001 319     7     3      0  0.0000  0.0000  0.0000  0.0000  0.0000 0.00000  0.000  0.000 23.426 19.379  0.0000  0.0000  0.0000
 2001 320     8     4      0  0.0000  0.0000  0.0000  0.0000  0.0000 0.00000  0.000  0.000 18.819 15.774  0.0000  0.0000  0.0000
 2001 321     9     5      0  0.0000  0.0000  0.0000  0.0000  0.0000 0.00000  0.000  0.000 22.213 16.302  0.0000  0.0000  0.0000
 2001 322    10     6      8  0.0000  0.0005  0.0003  0.0001  0.0000 0.00000  3.942  7.879 26.580 20.310  0.0000  0.0000  0.0000
 2001 323    11     7      9  0.1732  0.0006  0.1201  0.0328  0.0141 0.00000  3.909  7.784 27.861 22.308  0.0000  0.0000  0.0000
 2001 324    12     8     10  0.2255  0.0007  0.1521  0.0426  0.0203 0.00000  3.869  7.706 30.191 23.920  0.0000  0.0000  0.0000
 2001 325    13     9     11  0.1685  0.0008  0.0995  0.0366  0.0157 0.00000  3.802  7.613 25.811 23.231  0.0000  0.0000  0.0000
 2001 326    14    10     13  0.2537  0.0009  0.1575  0.0524  0.0223 0.00000  3.749  7.556 27.927 23.556  0.0000  0.0000  0.0000
 2001 327    15    11     14  0.3050  0.0010  0.1877  0.0610  0.0317 0.00000  3.699  7.503 31.275 25.971  0.0000  0.0000  0.0000
 2001 328    16    12     15  0.1202  0.0006  0.0762  0.0256  0.0085 0.00000  3.671  7.457 19.217 16.637  0.0000  0.0000  0.0000
 2001 329    17    13     16  0.1663  0.0005  0.1081  0.0355  0.0086 0.00000  3.655  7.441 18.046 14.749  0.0000  0.0000  0.0000
 2001 330    18    14     17  0.1426  0.0008  0.0911  0.0291  0.0112 0.00000  3.623  7.391 19.715 18.174  0.0000  0.0000  0.0000
 2001 331    19    15     20  0.3981  0.0010  0.2701  0.0832  0.0264 0.00000  3.664  7.378 23.551 20.253  0.0000  0.0000  0.0000
 2001 332    20    16     22  0.4253  0.0010  0.2578  0.1039  0.0238 0.00000  3.672  7.370 22.041 17.919  0.0000  0.0000  0.0000
 2001 333    21    17     25  0.4379  0.0011  0.2734  0.1028  0.0243 0.00000  3.672  7.369 21.511 17.568  0.0000  0.0000  0.0000
 2001 334    22    18     26  0.1757  0.0009  0.1052  0.0449  0.0113 0.00000  3.663  7.324 16.605 15.028  0.0000  0.0000  0.0000
 2001 335    23    19     29  0.6038  0.0013  0.3838  0.1346  0.0345 0.00000  3.659  7.360 22.608 18.378  0.0000  0.0000  0.0000
 2001 336    24    20     34  0.6963  0.0016  0.4440  0.1512  0.0426 0.00000  3.649  7.392 23.616 19.135  0.0000  0.0000  0.0000
 2001 337    25    21     36  0.3447  0.0016  0.2123  0.0809  0.0236 0.00000  3.634  7.352 19.785 17.348  0.0000  0.0000  0.0000
 2001 338    26    22     38  0.4023  0.0018  0.2475  0.0935  0.0287 0.00000  3.619  7.316 21.185 18.209  0.0000  0.0000  0.0000
 2001 339    27    23     42  0.6387  0.0022  0.4004  0.1415  0.0440 0.00000  3.604  7.315 21.795 19.644  0.0000  0.0000  0.0000
 2001 340    28    24     48  0.9549  0.0025  0.6042  0.2068  0.0638 0.00000  3.595  7.349 23.626 20.221  0.0000  0.0000  0.0000
 2001 341    29    25     55  1.1734  0.0032  0.7366  0.2517  0.0875 0.00000  3.585  7.375 26.465 21.554  0.0000  0.0000  0.0000
 2001 342    30    26     60  0.8801  0.0021  0.5596  0.2040  0.0408 0.00000  3.595  7.387 17.910 15.258  0.0000  0.0000  0.0000
 2001 343    31    27     66  0.9289  0.0019  0.5839  0.2248  0.0400 0.00000  3.614  7.398 19.348 13.578  0.0000  0.0000  0.0000
 2001 344    32    28     75  1.3750  0.0034  0.8629  0.3161  0.0791 0.00000  3.621  7.408 22.784 17.910  0.0000  0.0000  0.0000
 2001 345    33    29     83  1.3920  0.0038  0.8770  0.3139  0.0830 0.00000  3.618  7.411 23.065 17.869  0.0000  0.0000  0.0000
 2001 346    34    30     93  1.5862  0.0061  0.9787  0.3418  0.1360 0.00000  3.595  7.387 27.360 22.415  0.0000  0.0000  0.0000
 2001 347    35    31    103  1.7576  0.0074  1.0821  0.3699  0.1631 0.00000  3.566  7.359 26.914 23.725  0.0000  0.0000  0.0000
 2001 348    36    32    116  2.1456  0.0079  1.3262  0.4599  0.1827 0.00000  3.549  7.348 25.774 23.015  0.0000  0.0000  0.0000
 2001 349    37    33    132  2.6287  0.0079  1.6530  0.5658  0.1874 0.00000  3.543  7.364 24.495 20.984  0.0000  0.0000  0.0000
 2001 350    38    34    149  2.6995  0.0083  1.7081  0.5791  0.1825 0.00000  3.536  7.375 24.117 19.853  0.0000  0.0000  0.0000
 2001 351    39    35    169  3.3541  0.0101  2.1138  0.7130  0.2423 0.00000  3.530  7.386 26.252 20.734  0.0000  0.0000  0.0000
 2001 352    40    36    191  3.6444  0.0118  2.2077  0.8651  0.2675 0.00000  3.560  7.358 25.925 20.873  0.0000  0.0000  0.0000
 2001 353    41    37    209  3.2828  0.0152  1.9499  0.7625  0.3064 0.00000  3.560  7.302 28.125 23.073  0.0000  0.0000  0.0000
 2001 354    42    38    230  3.6091  0.0182  2.1158  0.8255  0.3828 0.00000  3.551  7.241 29.365 24.958  0.0000  0.0000  0.0000
 2001 355    43    39    242  2.1661  0.0128  1.3146  0.5121  0.1637 0.00000  3.541  7.199 19.775 18.091  0.0000  0.0000  0.0000
 2001 356    44    40    278  5.9267  0.0160  3.6255  1.4098  0.3875 0.00000  3.568  7.219 23.210 20.272  0.0000  0.0000  0.0000
 2001 357    45    41    320  6.9644  0.0164  4.2845  1.6634  0.4183 0.00000  3.595  7.251 24.620 18.744  0.0000  0.0000  0.0000
 2001 358    46    42    369  8.1754  0.0217  5.0412  1.9177  0.5465 0.00000  3.619  7.268 25.265 20.320  0.0000  0.0000  0.0000
 2001 359    47    43    425  9.5903  0.0268  5.9405  2.1857  0.6848 0.00000  3.654  7.276 26.358 21.127  0.0000  0.0000  0.0000
 2001 360    48    44    490 10.8722  0.0335  6.8173  2.3895  0.8799 0.00000  3.680  7.275 28.284 22.587  0.0000  0.0000  0.0000
 2001 361    49    45    564 12.1573  0.0432  7.7491  2.5471  1.1429 0.00000  3.697  7.261 29.723 24.671  0.0000  0.0000  0.0000
 2001 362    50    46    648 13.5325  0.0485  8.8926  2.7383  1.2253 0.03417  3.749  7.375 29.109 24.021  0.0000  0.0000  0.0000
 2001 363    51    47    742 14.8560  0.0589  9.8562  2.9228  1.3822 0.09512  3.842  7.633 28.481 24.396  0.0000  0.0000  0.0000
 2001 364    52    48    838 16.5732  0.0710  9.9736  3.5356  1.6534 0.15464  3.956  7.961 29.720 25.205  0.0000  0.0000  0.0000
 2001 365    53    49    925 15.4470  0.0830  9.1103  3.2980  1.6310 0.19844  4.068  8.298 29.645 25.202  0.0000  0.0000  0.0000
 2002 001    54    50   1064 21.4796  0.0852 14.1448  4.2313  1.7564 0.38653  4.283  8.919 26.851 22.694  0.0000  0.0000  0.0000
 2002 002    55    51   1204 22.2158  0.1061 14.2137  4.1611  1.9058 0.48987  4.496  9.534 26.783 22.984  0.0000  0.0000  0.0000
 2002 003    56    52   1368 25.4831  0.0000 14.6577  4.1538  2.0397 2.43925  5.726 13.100 25.968 22.133  0.0000  0.0000  0.0000
 2002 004    57    53   1525 24.8024  0.0000 14.6152  4.1604  2.0814 1.83345  6.420 15.021 26.380 22.042  0.0000  0.0000  0.0000
 2002 005    58    54   1593 12.3714  0.1987  7.0200  2.7680  1.2367 0.35799  6.368 14.921 21.498 20.422  0.0000  0.0000  0.0000
 2002 006    59    55   1732 22.4463  0.2221 14.1243  4.3878  1.9160 0.78030  6.426 15.015 23.874 21.401  0.0000  0.0000  0.0000
 2002 007    60    56   1905 28.0433  0.2000 17.2328  5.8369  1.8517 1.03944  6.529 15.246 22.443 18.822  0.0000  0.0000  0.0000
 2002 008    61    57   2100 32.5471  0.2515 19.1531  6.8729  2.5038 1.25969  6.637 15.517 26.339 20.317  0.0000  0.0000  0.0000
 2002 009    62    58   2283 31.7320  0.3098 18.0434  6.6921  2.7155 1.35716  6.739 15.783 25.650 21.528  0.0000  0.0000  0.0000
 2002 010    63    59   2484 33.7733  0.3638 20.1094  6.6315  3.1703 1.56527  6.871 16.093 27.292 22.489  0.0000  0.0000  0.0000
 2002 011    64    60   2671 33.2022  0.4463 18.9712  6.4385  3.7180 1.60048  6.987 16.364 28.765 24.428  0.0000  0.0000  0.0000
 2002 012    65    61   2890 37.0978  0.5034 22.0613  6.6870  4.4551 1.92135  7.130 16.705 30.446 25.535  0.0000  0.0000  0.0000
 2002 013    66    62   3086 36.6286  0.5750 19.9023  6.9842  4.7810 1.90919  7.250 16.996 30.865 26.277  0.0000  0.0000  0.0000
 2002 014    67    63   3208 22.2007  0.4293 12.8148  4.3396  2.1948 1.17341  7.321 17.144 22.505 19.351  0.0000  0.0000  0.0000
 2002 015    68    64   3399 32.8055  0.3729 18.8675  6.6504  2.2886 1.86019  7.466 17.505 21.627 17.218  0.0000  0.0000  0.0000
 2002 016    69    65   3604 34.9048  0.4237 20.1662  6.9687  2.5522 2.03856  7.614 17.870 22.269 17.718  0.0000  0.0000  0.0000
 2002 017    70    66   3805 35.7799  0.5122 20.0972  7.1322  2.9836 2.12478  7.754 18.207 23.770 18.968  0.0000  0.0000  0.0000
 2002 018    71    67   4034 38.6455  0.5581 22.6966  7.4051  3.1910 2.34430  7.902 18.563 23.299 19.106  0.0000  0.0000  0.0000
 2002 019    72    68   4262 41.6083  0.6987 22.9591  8.0950  4.1245 2.57415  8.049 18.909 26.602 21.120  0.0000  0.0000  0.0000
 2002 020    73    69   4457 38.5447  0.9227 20.4329  6.9582  5.8701 2.31653  8.146 19.120 32.151 26.023  0.0000  0.0000  0.0000
 2002 021    74    70   4622 33.2107  0.9845 18.1994  5.9973  4.8700 1.83107  8.207 19.219 27.761 24.536  0.0000  0.0000  0.0000
 2002 022    75    71   4824 40.8272  1.0447 21.5130  7.4972  6.0994 2.37701  8.306 19.424 30.506 25.849  0.0000  0.0000  0.0000
 2002 023    76    72   5014 39.2454  1.0503 20.5370  7.2910  5.9200 2.12832  8.385 19.580 30.829 25.204  0.0000  0.0000  0.0000
 2002 024    77    73   5131 27.1250  0.0000 13.5042  4.6627  4.7984 1.11384  8.564 19.935 28.042 24.531  0.0000  0.0000  0.0000
 2002 025    78    74   5325 40.1263  1.1501 21.3768  7.6485  5.6667 1.98776  8.632 20.049 27.911 24.328  0.0000  0.0000  0.0000
 2002 026    79    75   5430 25.8390  0.4883 13.4932  5.1898  4.1055 0.18396  8.651 20.000 24.825 22.318  0.0000  0.0000  0.0000
 2002 027    80    76   5565 31.8849  1.1428 16.8194  6.4868  4.8220 0.69028  8.622 19.859 25.651 23.215  0.0000  0.0000  0.0000
 2002 028    81    77   5750 42.6430  1.1956 22.2319  8.1967  5.9943 2.06713  8.709 20.022 29.128 23.828  0.0000  0.0000  0.0000
 2002 029    82    78   5923 42.5511  1.2926 22.3977  7.9660  6.5663 2.09174  8.792 20.171 30.742 24.726  6.4338 20.5000 30.7889
 2002 030    83    79   6076 41.0924  1.3951 21.4208  8.1539  6.3263 1.35639  8.807 20.139 29.085 24.466  6.4169 20.5000 30.8947
 2002 031    84    80   6190 35.5836  1.4144 18.4632  7.5607  5.4981 0.38890  8.742 19.892 26.487 23.408  6.3615 20.4975 31.2428
 2002 032    85    81   6341 42.3341  1.2585 22.0833  9.2965  4.9512 1.06690  8.752 19.847 24.155 21.005  6.2865 20.2688 31.9404
 2002 033    86    82   6491 38.2117  1.1051 19.7635  8.8437  3.9436 0.71526  8.748 19.762 22.927 18.452  6.2567 19.6052 32.7905
 2002 034    87    83   6634 36.9988  1.1078 19.4961  8.6661  3.7848 0.57180  8.734 19.648 22.565 17.948  6.2480 19.1496 33.3003
 2002 035    88    84   6784 40.9144  1.3359 20.8179  9.4796  4.9257 0.61184  8.703 19.493 25.174 20.343  6.2291 19.2917 33.2762
 2002 036    89    85   6891 32.1366  1.4738 16.8647  7.2814  5.0037 0.00000  8.607 19.158 26.026 21.589  6.2238 19.5117 33.0895
 2002 037    90    86   6976 31.8377  1.4798 16.5959  7.3579  4.9106 0.00000  8.512 18.823 24.837 21.438  6.2191 19.6464 32.9843
 2002 038    91    87   7077 36.0494  1.4470 18.2665  8.6935  4.9709 0.00000  8.420 18.494 24.674 20.882  6.2123 19.7035 32.9696
 2002 039    92    88   7154 32.5617  1.5109 16.6350  7.7627  5.0843 0.00000  8.322 18.147 24.801 21.581  6.2113 19.7977 32.8815
 2002 040    93    89   7182 19.5725  1.3123 10.9670  4.7742  3.4893 0.00000  8.243 17.847 21.386 18.883  6.2077 19.6102 33.0919
 2002 041    94    90   7271 35.6875  1.5573 17.5130  8.8396  5.6145 0.00000  8.146 17.483 25.365 22.326  6.2139 19.7456 32.9174
 2002 042    95    91   7356 36.2915  1.5167 18.3144  8.8839  5.6098 0.00000  8.051 17.125 26.647 21.856  6.2147 19.8268 32.8313
 2002 043    96    92   7399 23.6937  1.5120 12.7702  5.7728  4.7798 0.00000  7.955 16.764 23.725 21.831  6.2152 19.8937 32.7614
 2002 044    97    93   7478 35.4685  1.5990 17.3654  8.7519  6.3573 0.00000  7.853 16.374 27.572 23.605  6.2321 19.9793 32.5703
 2002 045    98    94   7533 37.2131  1.6170 18.1287  9.0517  7.1350 0.00000  7.744 15.972 29.457 24.741  6.2583 20.0467 32.3387
 2002 046    99    95   7615 35.9962  1.5653 17.4212  9.1519  6.7882 0.00000  7.636 15.573 28.654 24.188  6.2756 20.1077 32.1700
 2002 047   100    96   7708 34.8012  1.3572 17.5995  9.4532  5.0872 0.00000  7.545 15.222 24.359 20.644  6.2636 20.0707 32.2821
 2002 048   101    97   7802 34.6687  1.2909 17.4953  9.6106  4.8202 0.00000  7.458 14.881 24.046 19.832  6.2534 19.9917 32.4246
 2002 049   102    98   7903 32.6867  0.8677 16.3932  9.0196  4.8902 0.13039  7.447 14.710 24.410 20.126  6.2764 19.8832 32.3892
 2002 050   103    99   7961 28.0539  1.1487 14.1513  7.1122  5.6464 0.07989  7.389 14.432 26.494 22.424  6.2915 19.8887 32.2892
 2002 051   104   100   8012 23.4705  1.2229 12.0953  5.5647  5.5350 0.05719  7.311 14.113 25.714 22.894  6.3023 19.9021 32.2083
 2002 052   105   101   8107 30.9288  0.9723 15.0695  8.1888  5.5952 0.11389  7.271 13.887 24.809 21.991  6.3179 19.8874 32.1255
 2002 053   106   102   8198 30.5680  0.9864 14.5964  7.9973  5.9317 0.11574  7.223 13.653 25.839 22.628  6.3343 19.8820 32.0284
 2002 054   107   103   8283 26.8652  0.8644 13.2251  7.2510  4.6505 0.11062  7.182 13.447 23.776 19.960  6.3434 19.8205 32.0332
 2002 055   108   104   8360 22.0436  0.6951 11.5598  6.6887  2.9912 0.09836  7.151 13.284 20.150 15.586  6.3621 19.5835 32.1532
 2002 056   109   105   8455 29.0942  0.8157 13.7278  8.0218  5.0577 0.11690  7.105 13.088 27.266 19.958  6.3694 19.5416 32.1497
 2002 057   110   106   8526 27.6300  1.0439 12.0293  6.8379  7.2514 0.10709  7.021 12.811 31.053 25.600  6.3910 19.5539 32.0021
 2002 058   111   107   8594 27.2232  1.0367 11.5304  6.6780  7.5302 0.10829  6.930 12.530 31.813 26.291  6.4133 19.5631 31.8535
 2002 059   112   108   8637 21.6261  1.2523  9.2013  4.8464  7.3922 0.04884  6.783 12.144 31.392 27.224  6.4276 19.5802 31.7476
 2002 060   113   109   8709 23.0116  0.8102 10.7900  6.3745  4.1802 0.09931  6.708 11.924 23.356 19.581  6.4311 19.5422 31.7637
 2002 061   114   110   8785 24.4868  0.8593 11.1491  6.7383  4.7297 0.08988  6.616 11.678 26.400 20.455  6.4329 19.5264 31.7681
 2002 062   115   111   8846 23.1122  0.9578  9.8121  5.8527  6.0113 0.08533  6.501 11.392 29.737 23.901  6.4407 19.5357 31.7096
 2002 063   116   112   8879 18.1283  1.0985  7.3359  4.0153  6.4834 0.06096  6.351 11.040 30.021 26.215  6.4506 19.5430 31.6406
 2002 064   117   113   8878  9.0580  1.1309  4.3750  1.6659  3.9755 0.00000  6.173 10.641 22.612 21.509  6.4473 19.5512 31.6530
 2002 065   118   114   8900 12.7527  1.0442  5.6089  2.7866  4.5388 0.02690  6.009 10.281 25.472 22.486  6.4471 19.5592 31.6466
 2002 066   119   115   8927 15.8522  1.0244  6.1555  3.4430  6.0367 0.05175  5.848  9.934 29.072 25.873  6.4544 19.5645 31.5957
 2002 067   120   116   8938 11.5791  1.1078  4.4731  2.1263  5.5651 0.01463  5.656  9.534 28.494 25.580  6.4567 19.5733 31.5725
 2002 068   121   117   8965 16.9069  0.9781  5.9280  3.5689  7.0652 0.05035  5.490  9.193 32.417 28.013  6.4666 19.5779 31.5060
 2002 069   122   118   8991 15.5419  1.1071  5.7515  2.0974  7.1638 0.00000  5.281  8.774 32.993 28.555  6.4229 19.6931 31.6639
 2002 070   123   119   8695  6.4760  0.9609  2.4854  0.7863  4.1904 0.00000  5.035  7.846 24.507 22.981  6.4219 19.6985 31.6645
 2002 071   124   120   8456  4.8907  0.7675  1.7367  0.4982  3.4838 0.00000  4.806  7.058 22.260 21.515  6.4209 19.7007 31.6688
 2002 072   125   121   8271  6.9189  0.6990  2.2172  0.8078  4.3358 0.00000  4.569  6.353 26.560 24.291  6.4173 19.7126 31.6792
 2002 073   126   122   8119  6.8952  0.6109  1.8102  0.6373  4.9037 0.00000  4.336  5.738 30.123 26.258  6.4177 19.7174 31.6723
 2002 074   127   123   7984  5.1480  0.5484  0.0486  0.0139  5.6370 0.00000  4.094  5.197 33.032 29.204  6.4177 19.7175 31.6719
 2002 075   128   124   7874  4.3119  0.4819  0.0000  0.0000  5.5437 0.00000  3.862  4.727 33.056 29.514  6.4177 19.7175 31.6719
 2002 076   129   125   7786  1.6318  0.3873  0.0000  0.0000  3.4115 0.00000  3.663  4.341 25.945 23.466  6.4177 19.7175 31.6719
 2002 077   130   126   7713  1.6015  0.3378  0.0000  0.0000  3.1135 0.00000  3.479  4.009 25.141 22.451  6.4177 19.7175 31.6719
 2002 078   131   127   7653  1.0335  0.3054  0.0000  0.0000  2.9994 0.00000  3.304  3.720 23.618 22.379  6.4177 19.7175 31.6719
 2002 079   132   128   7604  1.0109  0.2508  0.0000  0.0000  2.1920 0.00000  3.155  3.481 21.014 18.715  6.4177 19.7175 31.6719
 2002 080   133   129   7564  1.2686  0.2324  0.0000  0.0000  2.2648 0.00000  3.011  3.269 23.137 18.789  6.4177 19.7175 31.6719
 2002 081   134   130   7528  1.1823  0.2370  0.0000  0.0000  2.8997 0.00000  2.861  3.067 25.782 21.965  6.4177 19.7175 31.6719

*DSSAT Cropping System Model Ver. 4.6.1.000 -release      NOV 11, 2016; 09:12:21
                                                                                
*RUN   3        : UYSB                      CRGRO046 UYSB1062    1              
 MODEL          : CRGRO046 - Soybean                                            
 EXPERIMENT     : UYSB1062 SN late to create DSS                                
 DATA PATH      :                                                               
 TREATMENT  1   : UYSB                      CRGRO046                            
  
@YEAR DOY   DAS   DAP   TWAD    PHAD    CMAD    CGRD    GRAD    MRAD    CHAD   CL%D   CS%D   TGNN   TGAV    GN%D    GL%D    GC%D
 2002 316     4     0      0  0.0000  0.0000  0.0000  0.0000  0.0000 0.00000  0.000  0.000 24.944 18.677  0.0000  0.0000  0.0000
 2002 317     5     1      0  0.0000  0.0000  0.0000  0.0000  0.0000 0.00000  0.000  0.000 27.936 21.633  0.0000  0.0000  0.0000
 2002 318     6     2      0  0.0000  0.0000  0.0000  0.0000  0.0000 0.00000  0.000  0.000 28.227 23.678  0.0000  0.0000  0.0000
 2002 319     7     3      0  0.0000  0.0000  0.0000  0.0000  0.0000 0.00000  0.000  0.000 24.148 22.214  0.0000  0.0000  0.0000
 2002 320     8     4      0  0.0000  0.0000  0.0000  0.0000  0.0000 0.00000  0.000  0.000 28.677 24.235  0.0000  0.0000  0.0000
 2002 321     9     5      0  0.0000  0.0000  0.0000  0.0000  0.0000 0.00000  0.000  0.000 26.588 23.973  0.0000  0.0000  0.0000
 2002 322    10     6      8  0.0000  0.0006  0.0004  0.0002  0.0000 0.00000  3.926  7.846 27.300 23.932  0.0000  0.0000  0.0000
 2002 323    11     7      9  0.1539  0.0005  0.1184  0.0234  0.0120 0.00000  3.892  7.748 25.989 21.546  0.0000  0.0000  0.0000
 2002 324    12     8      9  0.1058  0.0006  0.0700  0.0203  0.0097 0.00000  3.851  7.655 23.629 21.623  0.0000  0.0000  0.0000
 2002 325    13     9     11  0.2030  0.0006  0.1271  0.0440  0.0130 0.00000  3.803  7.618 22.791 19.638  0.0000  0.0000  0.0000
 2002 326    14    10     12  0.2442  0.0006  0.1563  0.0524  0.0138 0.00000  3.772  7.602 22.804 18.110  0.0000  0.0000  0.0000
 2002 327    15    11     14  0.2876  0.0009  0.1800  0.0591  0.0247 0.00000  3.729  7.557 28.824 23.127  0.0000  0.0000  0.0000
 2002 328    16    12     16  0.2524  0.0012  0.1791  0.0406  0.0270 0.00000  3.699  7.487 28.058 25.585  0.0000  0.0000  0.0000
 2002 329    17    13     17  0.1780  0.0011  0.1171  0.0326  0.0171 0.00000  3.663  7.420 23.837 21.830  0.0000  0.0000  0.0000
 2002 330    18    14     19  0.3471  0.0012  0.2340  0.0721  0.0307 0.00000  3.694  7.359 26.967 23.455  0.0000  0.0000  0.0000
 2002 331    19    15     20  0.3098  0.0014  0.1702  0.0749  0.0310 0.00000  3.652  7.285 27.847 24.012  0.0000  0.0000  0.0000
 2002 332    20    16     22  0.2191  0.0009  0.1299  0.0546  0.0139 0.00000  3.637  7.253 18.431 16.925  0.0000  0.0000  0.0000
 2002 333    21    17     23  0.2833  0.0013  0.1731  0.0637  0.0227 0.00000  3.611  7.227 22.693 20.292  0.0000  0.0000  0.0000
 2002 334    22    18     27  0.6191  0.0018  0.4249  0.1146  0.0538 0.00000  3.640  7.267 27.443 24.110  0.0000  0.0000  0.0000
 2002 335    23    19     29  0.3128  0.0014  0.2022  0.0678  0.0222 0.00000  3.651  7.232 19.568 18.421  0.0000  0.0000  0.0000
 2002 336    24    20     35  0.8615  0.0016  0.5789  0.1739  0.0498 0.00000  3.685  7.324 22.793 19.316  0.0000  0.0000  0.0000
 2002 337    25    21     40  0.8878  0.0000  0.5971  0.1553  0.0611 0.00220  3.869  7.552 25.026 20.832  0.0000  0.0000  0.0000
 2002 338    26    22     44  0.5360  0.0024  0.3459  0.1067  0.0392 0.00000  3.851  7.505 20.570 19.423  0.0000  0.0000  0.0000
 2002 339    27    23     50  0.9591  0.0000  0.6176  0.1575  0.0860 0.02322  4.906  8.386 26.740 23.908  0.0000  0.0000  0.0000
 2002 340    28    24     54  0.7465  0.0042  0.4612  0.1522  0.0696 0.00000  4.776  8.210 24.996 22.845  0.0000  0.0000  0.0000
 2002 341    29    25     60  1.0806  0.0036  0.6825  0.2209  0.0730 0.00000  4.660  8.074 23.328 19.922  0.0000  0.0000  0.0000
 2002 342    30    26     69  1.4021  0.0032  0.8926  0.2933  0.0714 0.00000  4.551  7.984 21.115 17.136  0.0000  0.0000  0.0000
 2002 343    31    27     81  1.9241  0.0048  1.2306  0.3842  0.1239 0.00000  4.454  7.892 23.757 20.424  0.0000  0.0000  0.0000
 2002 344    32    28     89  1.2750  0.0053  0.7743  0.2689  0.0893 0.00000  4.346  7.806 21.992 19.555  0.0000  0.0000  0.0000
 2002 345    33    29    103  2.4403  0.0074  1.5296  0.5010  0.1960 0.00000  4.261  7.728 26.399 23.174  0.0000  0.0000  0.0000
 2002 346    34    30    118  2.4822  0.0078  1.5872  0.5152  0.1798 0.00000  4.200  7.673 24.613 21.424  0.0000  0.0000  0.0000
 2002 347    35    31    132  2.3052  0.0087  1.4536  0.4872  0.1718 0.00000  4.127  7.619 23.934 21.067  0.0000  0.0000  0.0000
 2002 348    36    32    148  2.8159  0.0117  1.7066  0.6278  0.2596 0.00000  4.070  7.535 27.728 24.037  0.0000  0.0000  0.0000
 2002 349    37    33    167  3.2586  0.0136  1.9622  0.7192  0.3137 0.00000  4.021  7.460 28.295 24.784  0.0000  0.0000  0.0000
 2002 350    38    34    195  4.5687  0.0000  2.8924  0.8742  0.3810 0.04314  4.437  7.886 26.756 23.674  0.0000  0.0000  0.0000
 2002 351    39    35    227  5.1075  0.0000  3.2231  0.9766  0.3732 0.10098  5.155  8.566 25.150 21.782  0.0000  0.0000  0.0000
 2002 352    40    36    268  6.5266  0.0000  4.1930  1.2847  0.4448 0.04115  5.235  8.692 25.998 20.875  0.0000  0.0000  0.0000
 2002 353    41    37    284  2.8729  0.0191  1.6841  0.7014  0.2128 0.00000  5.076  8.540 20.469 18.498  0.0000  0.0000  0.0000
 2002 354    42    38    329  7.0044  0.0238  4.7122  1.4702  0.4740 0.00000  4.874  8.344 23.830 20.677  0.0000  0.0000  0.0000
 2002 355    43    39    388  9.3436  0.0000  5.9914  1.8271  0.6235 0.09111  5.135  8.609 25.359 20.665  0.0000  0.0000  0.0000
 2002 356    44    40    418  5.1234  0.0406  3.2189  1.0333  0.5485 0.01422  5.023  8.491 27.531 23.840  0.0000  0.0000  0.0000
 2002 357    45    41    444  4.3922  0.0206  2.7266  1.0033  0.2342 0.02080  4.965  8.496 17.409 15.009  0.0000  0.0000  0.0000
 2002 358    46    42    506  9.5757  0.0000  5.7833  1.7386  0.5168 0.66675  5.868 11.460 21.657 17.501  0.0000  0.0000  0.0000
 2002 359    47    43    595 13.4943  0.0000  7.7419  2.2730  0.8646 1.39428  7.400 16.122 25.205 19.830  0.0000  0.0000  0.0000
 2002 360    48    44    687 14.7287  0.0000  9.1235  2.7369  1.2273 0.36799  7.354 16.104 28.171 22.975  0.0000  0.0000  0.0000
 2002 361    49    45    789 16.2687  0.1204 10.3947  3.1098  1.7092 0.28193  7.076 15.474 31.817 25.941  0.0000  0.0000  0.0000
 2002 362    50    46    834  8.3437  0.1348  4.9897  1.7219  1.0059 0.16952  6.946 15.158 26.428 24.349  0.0000  0.0000  0.0000
 2002 363    51    47    882  8.9922  0.1436  5.2254  1.8606  1.1167 0.21199  6.844 14.933 27.574 24.815  0.0000  0.0000  0.0000
 2002 364    52    48    961 13.9457  0.1400  8.0337  2.9678  1.3590 0.37593  6.788 14.864 26.933 23.529  0.0000  0.0000  0.0000
 2002 365    53    49   1029 11.7899  0.1340  6.8714  2.5113  1.0713 0.36209  6.768 14.868 23.833 21.503  0.0000  0.0000  0.0000
 2003 001    54    50   1143 18.2432  0.1520 11.5056  3.5493  1.5469 0.65982  6.827 15.080 25.072 22.312  0.0000  0.0000  0.0000
 2003 002    55    51   1282 21.6359  0.1667 13.7376  3.9811  1.7398 0.89576  6.941 15.450 24.951 21.868  0.0000  0.0000  0.0000
 2003 003    56    52   1356 13.2059  0.1853  7.5484  2.7405  1.2845 0.53804  6.965 15.559 24.083 21.359  0.0000  0.0000  0.0000
 2003 004    57    53   1529 27.5437  0.0000 16.0220  4.4723  2.5923 2.10246  7.640 17.431 28.100 24.085  0.0000  0.0000  0.0000
 2003 005    58    54   1702 28.1095  0.1832 16.8300  4.8143  2.7515 1.47688  7.822 17.920 29.302 23.961  0.0000  0.0000  0.0000
 2003 006    59    55   1893 30.3640  0.2956 18.6562  5.7853  2.5219 1.62621  7.946 18.267 25.764 21.928  0.0000  0.0000  0.0000
 2003 007    60    56   2089 31.8462  0.3390 19.0409  6.1215  2.8420 1.73851  8.068 18.608 27.684 22.307  0.0000  0.0000  0.0000
 2003 008    61    57   2278 32.3775  0.3887 18.6070  6.3373  3.1032 1.78540  8.184 18.922 28.474 22.810  0.0000  0.0000  0.0000
 2003 009    62    58   2447 30.9285  0.4948 16.6151  6.1153  3.5531 1.75399  8.266 19.158 28.626 24.969  0.0000  0.0000  0.0000
 2003 010    63    59   2547 19.5367  0.5336 10.7976  3.6780  2.7083 1.08390  8.292 19.196 26.855 24.346  0.0000  0.0000  0.0000
 2003 011    64    60   2716 31.2891  0.5306 16.7597  6.1539  3.4889 1.89980  8.404 19.492 28.324 23.880  0.0000  0.0000  0.0000
 2003 012    65    61   2924 36.5212  0.5505 20.3875  7.0247  3.7277 2.35301  8.568 19.905 28.032 23.086  0.0000  0.0000  0.0000
 2003 013    66    62   3140 36.9635  0.5484 20.9360  7.0732  3.4770 2.45793  8.734 20.322 27.304 21.497  0.0000  0.0000  0.0000
 2003 014    67    63   3342 37.4716  0.6775 19.8846  7.2373  4.2548 2.52334  8.876 20.676 29.163 23.787  0.0000  0.0000  0.0000
 2003 015    68    64   3532 36.1855  0.7926 19.1369  6.7989  4.7192 2.41146  8.996 20.954 29.931 25.272  0.0000  0.0000  0.0000
 2003 016    69    65   3722 36.9645  0.8836 19.4300  6.8334  5.1414 2.45633  9.111 21.209 30.219 26.062  0.0000  0.0000  0.0000
 2003 017    70    66   3910 37.1136  0.9497 19.3600  6.7696  5.6208 2.43605  9.214 21.437 31.815 26.870  0.0000  0.0000  0.0000
 2003 018    71    67   4111 38.1926  0.8542 20.4122  7.4537  4.2012 2.40127  9.331 21.694 26.250 22.451  0.0000  0.0000  0.0000
 2003 019    72    68   4298 36.5657  0.9171 19.3407  6.9902  4.7001 2.22680  9.425 21.891 29.569 23.478  0.0000  0.0000  0.0000
 2003 020    73    69   4458 32.5534  1.0343 17.6613  6.1901  4.4646 1.63459  9.464 21.933 26.687 23.785  0.0000  0.0000  0.0000
 2003 021    74    70   4646 38.6720  1.0468 19.9086  7.6323  5.0310 2.09516  9.539 22.079 28.279 23.800  0.0000  0.0000  0.0000
 2003 022    75    71   4759 27.7146  1.2208 14.5049  5.3665  4.8897 0.74908  9.495 21.892 29.051 25.289  0.0000  0.0000  0.0000
 2003 023    76    72   4938 38.2721  1.0836 20.1153  7.7471  4.4930 1.82469  9.555 21.995 25.355 22.131  6.2322 20.3259 32.2230
 2003 024    77    73   5126 39.2436  0.9834 20.8118  7.9292  3.9917 2.29623  9.674 22.241 25.627 19.752  6.1862 19.5098 33.3262
 2003 025    78    74   5282 37.5874  1.2788 19.0571  7.7424  5.0841 1.57146  9.698 22.244 27.852 23.088  6.2573 20.1545 32.2374
 2003 026    79    75   5449 39.3338  1.2927 20.3741  8.0285  5.1153 1.71063  9.733 22.281 27.983 22.538  6.2562 20.2877 32.1109
 2003 027    80    76   5591 37.7191  1.3242 19.0176  8.0850  4.9837 1.23139  9.736 22.219 27.938 22.136  6.2456 20.3052 32.1598
 2003 028    81    77   5740 39.1705  1.4688 19.3997  8.3934  5.8199 1.16976  9.722 22.112 29.560 23.830  6.2878 20.3807 31.8202
 2003 029    82    78   5857 38.4874  1.6125 19.0102  8.2181  6.3718 0.77522  9.660 21.884 30.077 25.171  6.3466 20.4185 31.4153
 2003 030    83    79   5998 40.1113  1.7086 19.5779  8.2896  7.6097 0.88261  9.599 21.661 32.949 27.220  6.4366 20.4424 30.8290
 2003 031    84    80   6111 38.5971  1.7652 18.2863  7.9669  8.0844 0.68534  9.507 21.375 33.943 28.214  6.5107 20.4563 30.3520
 2003 032    85    81   6191 32.4412  1.8055 16.0476  7.0484  6.7391 0.00000  9.358 20.916 30.544 26.606  6.5329 20.4672 30.2022
 2003 033    86    82   6282 37.1988  1.7755 17.3278  8.0677  7.9078 0.28867  9.233 20.534 33.602 27.803  6.5698 20.4742 29.9642
 2003 034    87    83   6309 22.5590  1.7678 11.2341  4.8000  5.8772 0.00000  9.088 20.080 30.379 26.048  6.5656 20.4799 29.9850
 2003 035    88    84   6274 21.3023  1.7291 10.5381  4.7184  5.4999 0.00000  8.949 19.632 29.245 25.344  6.5496 20.4841 30.0812
 2003 036    89    85   6288 17.6189  1.5304  9.4828  4.2106  4.1137 0.00000  8.832 19.229 24.113 22.396  6.4832 20.4615 30.5186
 2003 037    90    86   6356 34.0989  1.6902 15.8489  8.2200  6.9816 0.00000  8.703 18.774 31.134 26.483  6.5025 20.4685 30.3910
 2003 038    91    87   6399 24.1047  1.6228 12.3966  5.8506  5.2886 0.00000  8.579 18.332 26.892 24.388  6.4848 20.4742 30.4958
 2003 039    92    88   6440 29.2377  1.6374 14.3772  7.1819  6.1485 0.00000  8.453 17.877 28.701 25.481  6.4873 20.4783 30.4761
 2003 040    93    89   6493 27.0951  1.6281 13.2741  6.7675  6.1967 0.00000  8.324 17.414 28.827 25.930  6.4955 20.4817 30.4213
 2003 041    94    90   6547 25.6220  1.3108 12.6966  6.4711  5.7627 0.07691  8.250 17.073 27.938 25.077  6.5228 20.4191 30.3134
 2003 042    95    91   6581 18.6688  1.3704 10.2141  4.3049  4.6810 0.02551  8.154 16.681 25.611 23.430  6.5118 20.4075 30.3939
 2003 043    96    92   6658 32.4492  1.4690 15.6930  8.7450  5.9398 0.00000  8.034 16.236 27.201 24.270  6.5074 20.3966 30.4324
 2003 044    97    93   6742 32.2255  0.9976 15.3997  8.7288  5.7170 0.12203  8.001 15.991 27.487 23.555  6.5213 20.3373 30.4046
 2003 045    98    94   6831 31.6335  1.0259 15.0204  8.5290  5.8703 0.10800  7.955 15.723 28.331 23.793  6.5314 20.2973 30.3814
 2003 046    99    95   6905 28.2420  1.0737 13.3052  7.3271  6.0653 0.09209  7.892 15.423 29.744 24.528  6.5433 20.2698 30.3343
 2003 047   100    96   6981 22.7085  0.7984 11.7889  6.5221  3.2500 0.08850  7.856 15.208 20.941 17.905  6.5411 20.0757 30.5426
 2003 048   101    97   7085 29.8816  0.7609 14.5295  8.6548  4.1966 0.11805  7.831 15.016 25.007 19.257  6.5369 19.9467 30.6976
 2003 049   102    98   7180 29.1015  0.8398 13.7817  8.1285  4.7664 0.11203  7.786 14.788 27.035 20.893  6.5338 19.9022 30.7618
 2003 050   103    99   7217 13.1668  0.9161  7.4961  3.5967  2.5123 0.03080  7.696 14.486 19.488 16.596  6.5314 19.7772 30.9013
 2003 051   104   100   7288 20.4746  0.7581 10.5339  6.1807  2.8019 0.07772  7.638 14.260 20.213 16.680  6.5340 19.6080 31.0543
 2003 052   105   101   7362 21.2194  0.6252 10.5307  6.4337  2.8956 0.11412  7.606 14.097 22.174 16.429  6.5433 19.4299 31.1746
 2003 053   106   102   7403 14.5856  0.8995  7.5916  3.9265  2.9258 0.04990  7.506 13.796 21.269 18.130  6.5408 19.3742 31.2460
 2003 054   107   103   7375  8.7317  0.9939  5.0304  2.0093  2.5734 0.01303  7.372 13.434 19.850 17.853  6.5364 19.3407 31.3071
 2003 055   108   104   7423 18.5523  0.9581  8.5116  4.7232  4.4315 0.07234  7.255 13.109 25.621 22.625  6.5378 19.3551 31.2836
 2003 056   109   105   7492 23.2545  0.8200 10.1165  6.2415  4.9414 0.10634  7.163 12.849 28.431 22.905  6.5431 19.3664 31.2395
 2003 057   110   106   7541 20.6981  0.9393  8.4127  5.1107  6.0230 0.09142  7.039 12.529 31.406 26.310  6.5567 19.3756 31.1447
 2003 058   111   107   7583 19.1287  0.9835  7.5262  4.5446  6.2663 0.07911  6.895 12.179 31.998 27.366  6.5705 19.3841 31.0505
 2003 059   112   108   7599 11.2937  1.0757  4.9856  2.3937  4.2770 0.02374  6.709 11.756 26.249 23.827  6.5698 19.3974 31.0414
 2003 060   113   109   7616 10.3569  1.0069  4.6305  2.2543  3.8005 0.02299  6.529 11.354 24.271 22.597  6.5678 19.4077 31.0438
 2003 061   114   110   7613  7.7635  1.0398  3.5631  1.4794  3.5170 0.00000  6.329 10.919 23.662 22.202  6.5637 19.4192 31.0578
 2003 062   115   111   7645 14.1185  0.8999  5.8914  3.4787  4.2406 0.04310  6.161 10.561 26.425 23.293  6.5641 19.4293 31.0454
 2003 063   116   112   7688 16.0079  0.7828  6.6348  4.1984  4.0913 0.06060  6.017 10.259 27.204 22.223  6.5644 19.4339 31.0387
 2003 064   117   113   7711 12.3509  1.0182  5.0749  2.1418  4.7234 0.00000  5.802  9.817 28.794 25.166  6.5253 19.5289 31.1877
 2003 065   118   114   7455  6.1018  0.9177  2.4587  0.9630  3.4751 0.00000  5.535  8.879 23.452 22.670  6.5233 19.5361 31.1935
 2003 066   119   115   7253  7.2376  0.8144  2.5575  1.1830  4.0637 0.00000  5.263  8.039 27.405 24.953  6.5227 19.5439 31.1892
 2003 067   120   116   7084  4.8556  0.6859  1.4411  0.4285  3.7172 0.00000  5.002  7.310 27.217 24.801  6.5223 19.5483 31.1872
 2003 068   121   117   6944  3.8681  0.5980  0.5600  0.1606  3.7712 0.00000  4.740  6.670 28.113 25.697  6.5223 19.5500 31.1855
 2003 069   122   118   6830  3.1623  0.4988  0.3796  0.1089  3.1868 0.00000  4.498  6.125 25.510 23.983  6.5221 19.5512 31.1855
 2003 070   123   119   6736  2.6590  0.4299  0.1196  0.0343  2.9391 0.00000  4.271  5.653 26.027 23.223  6.5220 19.5515 31.1857
 2003 071   124   120   6663  2.0878  0.3259  0.5055  0.1450  1.8039 0.00000  4.091  5.276 21.063 17.692  6.5216 19.5488 31.1913
 2003 072   125   121   6604  1.6347  0.2830  0.2921  0.0838  1.5737 0.00000  3.923  4.953 20.313 16.412  6.5214 19.5460 31.1952
 2003 073   126   122   6554  1.7888  0.2721  0.1790  0.0514  1.8439 0.00000  3.753  4.657 22.984 17.950  6.5212 19.5451 31.1971
 2003 074   127   123   6511  0.6056  0.2616  0.0000  0.0000  1.9191 0.00000  3.580  4.385 20.963 19.368  6.5212 19.5451 31.1971
 2003 075   128   124   6475  1.1782  0.2522  0.0000  0.0000  2.1939 0.00000  3.408  4.133 23.585 20.751  6.5212 19.5451 31.1971
 2003 076   129   125   6445  0.9613  0.2163  0.0000  0.0000  1.7865 0.00000  3.257  3.918 23.207 18.072  6.5212 19.5451 31.1971

*DSSAT Cropping System Model Ver. 4.6.1.000 -release      NOV 11, 2016; 09:12:21
                                                                                
*RUN   4        : UYSB                      CRGRO046 UYSB1062    1              
 MODEL          : CRGRO046 - Soybean                                            
 EXPERIMENT     : UYSB1062 SN late to create DSS                                
 DATA PATH      :                                                               
 TREATMENT  1   : UYSB                      CRGRO046                            
  
@YEAR DOY   DAS   DAP   TWAD    PHAD    CMAD    CGRD    GRAD    MRAD    CHAD   CL%D   CS%D   TGNN   TGAV    GN%D    GL%D    GC%D
 2003 316     4     0      0  0.0000  0.0000  0.0000  0.0000  0.0000 0.00000  0.000  0.000 19.316 17.060  0.0000  0.0000  0.0000
 2003 317     5     1      0  0.0000  0.0000  0.0000  0.0000  0.0000 0.00000  0.000  0.000 18.352 15.415  0.0000  0.0000  0.0000
 2003 318     6     2      0  0.0000  0.0000  0.0000  0.0000  0.0000 0.00000  0.000  0.000 20.675 15.482  0.0000  0.0000  0.0000
 2003 319     7     3      0  0.0000  0.0000  0.0000  0.0000  0.0000 0.00000  0.000  0.000 26.849 20.545  0.0000  0.0000  0.0000
 2003 320     8     4      0  0.0000  0.0000  0.0000  0.0000  0.0000 0.00000  0.000  0.000 21.316 19.812  0.0000  0.0000  0.0000
 2003 321     9     5      0  0.0000  0.0000  0.0000  0.0000  0.0000 0.00000  0.000  0.000 25.172 21.482  0.0000  0.0000  0.0000
 2003 322    10     6      8  0.0000  0.0003  0.0002  0.0001  0.0000 0.00000  3.962  7.921 17.422 15.667  0.0000  0.0000  0.0000
 2003 323    11     7      9  0.1836  0.0005  0.1337  0.0328  0.0117 0.00000  3.933  7.840 23.886 19.694  0.0000  0.0000  0.0000
 2003 324    12     8     10  0.1594  0.0004  0.0974  0.0366  0.0075 0.00000  3.897  7.788 18.961 15.736  0.0000  0.0000  0.0000
 2003 325    13     9     11  0.2248  0.0005  0.1443  0.0469  0.0127 0.00000  3.861  7.740 23.516 17.818  0.0000  0.0000  0.0000
 2003 326    14    10     13  0.2633  0.0009  0.1630  0.0523  0.0252 0.00000  3.809  7.659 30.701 24.430  0.0000  0.0000  0.0000
 2003 327    15    11     14  0.2834  0.0011  0.1734  0.0550  0.0317 0.00000  3.753  7.577 32.061 26.722  0.0000  0.0000  0.0000
 2003 328    16    12     15  0.1148  0.0007  0.0728  0.0236  0.0089 0.00000  3.720  7.516 18.854 17.420  0.0000  0.0000  0.0000
 2003 329    17    13     17  0.3378  0.0010  0.2183  0.0679  0.0240 0.00000  3.686  7.499 25.665 20.576  0.0000  0.0000  0.0000
 2003 330    18    14     19  0.2769  0.0013  0.1738  0.0540  0.0276 0.00000  3.637  7.434 27.935 23.814  0.0000  0.0000  0.0000
 2003 331    19    15     21  0.4066  0.0014  0.2448  0.0935  0.0358 0.00000  3.636  7.376 27.597 23.368  0.0000  0.0000  0.0000
 2003 332    20    16     23  0.3435  0.0014  0.2085  0.0794  0.0281 0.00000  3.626  7.326 25.765 21.177  0.0000  0.0000  0.0000
 2003 333    21    17     27  0.5838  0.0015  0.3604  0.1315  0.0439 0.00000  3.628  7.329 27.056 21.644  0.0000  0.0000  0.0000
 2003 334    22    18     29  0.3397  0.0015  0.2121  0.0749  0.0254 0.00000  3.607  7.299 21.430 19.387  0.0000  0.0000  0.0000
 2003 335    23    19     33  0.7276  0.0018  0.4600  0.1558  0.0513 0.00000  3.599  7.337 24.764 21.216  0.0000  0.0000  0.0000
 2003 336    24    20     38  0.7185  0.0019  0.4475  0.1644  0.0467 0.00000  3.607  7.345 24.016 19.535  0.0000  0.0000  0.0000
 2003 337    25    21     43  0.8695  0.0025  0.5358  0.1945  0.0677 0.00000  3.606  7.346 27.049 21.851  0.0000  0.0000  0.0000
 2003 338    26    22     47  0.7428  0.0030  0.4574  0.1608  0.0648 0.00000  3.583  7.321 26.335 22.428  0.0000  0.0000  0.0000
 2003 339    27    23     55  1.2025  0.0026  0.7682  0.2603  0.0717 0.00000  3.585  7.377 23.256 19.134  0.0000  0.0000  0.0000
 2003 340    28    24     63  1.2506  0.0026  0.8043  0.2707  0.0685 0.00000  3.588  7.418 23.228 17.421  0.0000  0.0000  0.0000
 2003 341    29    25     70  1.1884  0.0039  0.7352  0.2684  0.0863 0.00000  3.588  7.396 25.252 20.305  0.0000  0.0000  0.0000
 2003 342    30    26     75  0.9418  0.0038  0.5858  0.2131  0.0650 0.00000  3.580  7.368 22.502 18.487  0.0000  0.0000  0.0000
 2003 343    31    27     84  1.4479  0.0035  0.9171  0.3315  0.0749 0.00000  3.592  7.386 20.643 16.736  0.0000  0.0000  0.0000
 2003 344    32    28     96  1.9598  0.0048  1.2399  0.4293  0.1236 0.00000  3.594  7.410 25.323 18.944  0.0000  0.0000  0.0000
 2003 345    33    29    107  1.7296  0.0058  1.0923  0.3720  0.1199 0.00000  3.581  7.403 24.798 19.423  0.0000  0.0000  0.0000
 2003 346    34    30    119  1.9131  0.0052  1.2210  0.4217  0.1058 0.00000  3.581  7.413 22.007 16.918  0.0000  0.0000  0.0000
 2003 347    35    31    131  2.0178  0.0072  1.2680  0.4425  0.1376 0.00000  3.573  7.396 23.174 19.340  0.0000  0.0000  0.0000
 2003 348    36    32    148  2.7086  0.0095  1.6899  0.5803  0.2122 0.00000  3.560  7.384 25.928 21.700  0.0000  0.0000  0.0000
 2003 349    37    33    156  1.4976  0.0091  0.9308  0.3198  0.1260 0.00000  3.535  7.336 22.775 19.479  0.0000  0.0000  0.0000
 2003 350    38    34    172  2.4692  0.0070  1.5791  0.5479  0.1277 0.00000  3.540  7.350 19.816 16.090  0.0000  0.0000  0.0000
 2003 351    39    35    191  3.0526  0.0088  1.9554  0.6588  0.1737 0.00000  3.538  7.367 22.238 17.222  0.0000  0.0000  0.0000
 2003 352    40    36    213  3.7924  0.0117  2.3166  0.9069  0.2489 0.00000  3.570  7.347 24.712 19.087  0.0000  0.0000  0.0000
 2003 353    41    37    234  3.6636  0.0170  2.1813  0.8522  0.3348 0.00000  3.570  7.291 27.485 22.863  0.0000  0.0000  0.0000
 2003 354    42    38    251  2.8607  0.0172  1.7071  0.6656  0.2606 0.00000  3.557  7.230 24.190 21.467  0.0000  0.0000  0.0000
 2003 355    43    39    287  5.7619  0.0000  3.2644  0.9546  0.5219 0.54728  6.947 10.212 28.305 24.005  0.0000  0.0000  0.0000
 2003 356    44    40    312  4.2135  0.0234  2.6589  0.9691  0.2754 0.00000  6.604  9.897 22.224 18.247  0.0000  0.0000  0.0000
 2003 357    45    41    350  6.3831  0.0231  4.0130  1.5031  0.3532 0.00000  6.217  9.565 22.232 17.466  0.0000  0.0000  0.0000
 2003 358    46    42    392  7.0964  0.0301  4.1339  1.7591  0.4683 0.00000  5.835  9.262 24.085 19.463  0.0000  0.0000  0.0000
 2003 359    47    43    449  9.7148  0.0424  5.9778  2.1828  0.8268 0.00000  5.518  8.938 27.851 23.408  0.0000  0.0000  0.0000
 2003 360    48    44    509 10.4209  0.0457  6.4223  2.3338  0.8751 0.00000  5.267  8.674 27.790 22.917  0.0000  0.0000  0.0000
 2003 361    49    45    537  5.8686  0.0500  2.6720  1.6222  0.5955 0.00000  5.065  8.490 25.555 22.474  0.0000  0.0000  0.0000
 2003 362    50    46    592  9.3059  0.0405  5.5556  2.2464  0.6103 0.01039  4.900  8.374 21.741 19.161  0.0000  0.0000  0.0000
 2003 363    51    47    666 12.1912  0.0364  7.6635  2.8298  0.6515 0.04272  4.813  8.389 22.108 17.019  0.0000  0.0000  0.0000
 2003 364    52    48    760 15.6928  0.0531  9.6358  3.5497  1.0692 0.09821  4.765  8.519 26.120 19.992  0.0000  0.0000  0.0000
 2003 365    53    49    851 15.0771  0.0540  9.4170  3.3891  0.8940 0.13496  4.766  8.712 21.686 18.425  0.0000  0.0000  0.0000
 2004 001    54    50    970 17.9584  0.0603 12.1092  3.6694  1.1040 0.22453  4.809  9.028 24.903 18.201  0.0000  0.0000  0.0000
 2004 002    55    51   1102 20.5901  0.0000 12.5712  3.7198  1.3338 1.17859  5.496 11.191 25.128 19.035  0.0000  0.0000  0.0000
 2004 003    56    52   1248 22.8114  0.0000 13.2888  3.8250  1.8565 1.90381  6.433 13.996 27.646 21.875  0.0000  0.0000  0.0000
 2004 004    57    53   1380 21.0907  0.1893 13.7723  3.9671  2.1201 0.47034  6.362 13.849 29.025 24.007  0.0000  0.0000  0.0000
 2004 005    58    54   1521 23.6970  0.2309 14.6306  4.1603  2.7885 0.62278  6.344 13.848 30.851 26.442  0.0000  0.0000  0.0000
 2004 006    59    55   1678 26.7523  0.2462 16.1072  5.2177  3.1029 0.75037  6.353 13.925 31.646 26.162  0.0000  0.0000  0.0000
 2004 007    60    56   1809 23.7416  0.2740 13.5112  4.7671  2.9067 0.72228  6.365 14.010 30.919 25.900  0.0000  0.0000  0.0000
 2004 008    61    57   1990 30.4987  0.3006 18.4855  5.8252  3.3634 1.10368  6.451 14.280 29.420 25.477  0.0000  0.0000  0.0000
 2004 009    62    58   2164 30.7122  0.3420 17.7400  6.0328  3.5755 1.17382  6.538 14.553 29.658 25.823  0.0000  0.0000  0.0000
 2004 010    63    59   2330 30.0466  0.3770 16.9081  5.8796  3.5996 1.28211  6.634 14.849 29.470 25.670  0.0000  0.0000  0.0000
 2004 011    64    60   2542 34.3572  0.3817 21.2739  6.2762  3.4094 1.70013  6.794 15.297 25.981 23.544  0.0000  0.0000  0.0000
 2004 012    65    61   2703 29.1950  0.4096 16.2118  5.8156  3.0498 1.44512  6.898 15.604 26.068 22.807  0.0000  0.0000  0.0000
 2004 013    66    62   2895 33.5996  0.4344 19.3954  6.5296  3.3139 1.73777  7.042 15.993 26.249 22.414  0.0000  0.0000  0.0000
 2004 014    67    63   3114 38.0618  0.4994 21.9485  7.2754  3.9518 2.05291  7.206 16.430 27.584 23.319  0.0000  0.0000  0.0000
 2004 015    68    64   3302 34.1495  0.4904 18.9457  6.7839  3.2714 1.89156  7.341 16.793 25.231 21.360  0.0000  0.0000  0.0000
 2004 016    69    65   3534 39.1177  0.4923 23.0478  7.5004  3.3693 2.24478  7.510 17.237 25.146 20.272  0.0000  0.0000  0.0000
 2004 017    70    66   3667 25.5963  0.6187 14.4002  4.7552  3.2629 1.35071  7.573 17.372 26.779 22.264  0.0000  0.0000  0.0000
 2004 018    71    67   3792 24.8841  0.6797 14.0134  4.5478  3.4211 1.26321  7.625 17.469 26.110 22.992  0.0000  0.0000  0.0000
 2004 019    72    68   3935 27.0501  0.6194 15.3060  5.1617  3.0603 1.39221  7.699 17.631 22.887 21.024  0.0000  0.0000  0.0000
 2004 020    73    69   4093 30.9103  0.7479 17.1276  5.7514  4.0281 1.63564  7.783 17.819 27.044 23.246  0.0000  0.0000  0.0000
 2004 021    74    70   4297 39.5848  0.8131 21.2768  7.5423  4.8921 2.25102  7.919 18.148 27.668 23.942  0.0000  0.0000  0.0000
 2004 022    75    71   4498 39.4451  0.8944 21.2694  7.3813  5.2842 2.17495  8.039 18.427 28.524 24.690  0.0000  0.0000  0.0000
 2004 023    76    72   4686 38.1911  0.9296 20.3510  7.3217  5.0958 1.86952  8.128 18.617 27.717 24.134  0.0000  0.0000  0.0000
 2004 024    77    73   4881 40.2358  0.9747 21.1081  7.7576  5.5215 1.91324  8.217 18.810 28.823 24.488  0.0000  0.0000  0.0000
 2004 025    78    74   5087 41.4546  0.9323 22.0618  8.1602  5.0968 1.95984  8.316 19.028 27.841 22.790  0.0000  0.0000  0.0000
 2004 026    79    75   5298 42.1931  0.9555 22.5459  8.2014  5.4626 1.90259  8.406 19.227 29.479 22.996  0.0000  0.0000  0.0000
 2004 027    80    76   5506 42.5687  0.9988 22.4810  8.4341  5.3819 1.82407  8.488 19.399 28.366 22.635  0.0000  0.0000  0.0000
 2004 028    81    77   5628 30.4125  0.3159 15.5704  5.8455  5.0332 0.35461  8.554 19.456 28.006 23.673  0.0000  0.0000  0.0000
 2004 029    82    78   5779 42.3622  1.3225 21.1173  8.1979  7.0808 1.60076  8.586 19.502 31.235 26.222  6.5660 20.5000 29.9623
 2004 030    83    79   5940 42.0453  1.3716 20.7361  8.0189  7.8154 1.52642  8.617 19.543 33.552 27.321  6.6539 20.5000 29.4132
 2004 031    84    80   6028 31.3132  1.4638 15.7542  6.0504  7.0770 0.10096  8.517 19.207 32.639 27.662  6.6769 20.5000 29.2696
 2004 032    85    81   6147 39.1297  1.4789 19.1172  8.5291  6.6683 0.40303  8.442 18.944 28.884 25.555  6.5967 20.5000 29.7707
 2004 033    86    82   6255 37.5965  1.3890 19.1601  8.4648  5.7901 0.02234  8.342 18.608 27.468 23.602  6.4931 20.4999 30.4182
 2004 034    87    83   6291 18.5774  1.2575 10.1970  4.0004  3.8263 0.00000  8.254 18.300 22.473 21.399  6.3847 20.3582 31.2373
 2004 035    88    84   6386 35.8170  1.4694 16.8483  8.4233  6.3049 0.00000  8.147 17.935 28.745 24.844  6.4023 20.4001 31.0855
 2004 036    89    85   6511 40.5280  1.3961 20.0663  9.6840  5.8646 0.00000  8.048 17.588 26.055 23.193  6.3756 20.4222 31.2303
 2004 037    90    86   6638 40.6123  1.2804 20.3687  9.9963  5.1876 0.00000  7.961 17.271 25.435 21.285  6.3346 20.3432 31.5655
 2004 038    91    87   6751 38.0757  1.2932 19.0573  9.3916  5.1414 0.00000  7.872 16.951 25.857 21.278  6.3055 20.2866 31.8041
 2004 039    92    88   6882 40.0141  1.3583 21.0758  9.5354  5.6673 0.00000  7.777 16.612 26.539 22.175  6.2914 20.2964 31.8825
 2004 040    93    89   6986 37.7492  1.3712 18.5881  9.4056  5.7720 0.00000  7.681 16.268 27.330 22.466  6.2840 20.3141 31.9107
 2004 041    94    90   7092 38.4649  1.4289 18.6214  9.5599  6.3725 0.00000  7.578 15.905 28.226 23.613  6.2927 20.3456 31.8248
 2004 042    95    91   7184 38.2026  1.4093 18.4836  9.5735  6.3944 0.00000  7.478 15.544 28.474 23.505  6.2979 20.3695 31.7684
 2004 043    96    92   7276 35.8672  1.4894 16.9085  8.9091  7.5246 0.00000  7.368 15.156 31.109 25.997  6.3351 20.3890 31.5168
 2004 044    97    93   7292 16.6311  1.2886  9.6810  3.5926  4.3098 0.00484  7.281 14.820 22.916 21.737  6.3250 20.3691 31.5994
 2004 045    98    94   7370 27.9128  0.9032 14.5519  7.5294  4.3617 0.08864  7.256 14.625 23.755 20.003  6.3352 20.1972 31.7075
 2004 046    99    95   7490 36.1881  1.1431 18.4621  9.9192  4.6695 0.00000  7.182 14.315 25.023 19.271  6.3131 20.0630 31.9803
 2004 047   100    96   7596 32.8141  0.8245 16.2055  8.7816  5.3933 0.12884  7.175 14.154 26.848 21.419  6.3337 20.0016 31.9126
 2004 048   101    97   7670 28.8971  0.9471 14.8322  7.5990  4.9446 0.08617  7.142 13.933 24.824 21.039  6.3405 19.9587 31.9129
 2004 049   102    98   7761 27.3330  0.7920 14.2170  7.5110  4.1234 0.09702  7.124 13.757 23.336 18.872  6.3492 19.8200 31.9974
 2004 050   103    99   7861 31.6555  0.7165 15.7260  8.7687  4.6935 0.13318  7.122 13.617 24.229 19.767  6.3612 19.7283 32.0143
 2004 051   104   100   7939 25.8733  0.5803 13.4834  7.7058  3.2968 0.12324  7.127 13.510 21.282 16.250  6.3827 19.4598 32.1480
 2004 052   105   101   8037 27.8434  0.6249 14.0364  8.0488  3.8409 0.12854  7.125 13.388 22.660 17.593  6.3960 19.3032 32.2218
 2004 053   106   102   8124 25.5842  0.7208 12.9886  7.2913  3.8293 0.10123  7.098 13.220 23.047 17.731  6.4035 19.1881 32.2898
 2004 054   107   103   8223 29.8995  0.7379 14.3186  8.2692  4.8361 0.12830  7.073 13.056 24.812 20.140  6.4099 19.1700 32.2681
 2004 055   108   104   8307 27.1591  0.8384 12.8832  7.2326  5.0664 0.11073  7.023 12.847 25.209 21.251  6.4153 19.1816 32.2229
 2004 056   109   105   8395 28.2984  0.8366 13.0489  7.5660  5.4373 0.11496  6.967 12.635 26.860 21.869  6.4217 19.2008 32.1635
 2004 057   110   106   8473 26.4568  0.8585 11.9544  6.9114  5.6369 0.10491  6.898 12.407 28.615 22.378  6.4282 19.2218 32.1022
 2004 058   111   107   8543 24.9703  0.9033 11.0248  6.3617  5.9463 0.09095  6.811 12.152 30.182 23.199  6.4350 19.2453 32.0362
 2004 059   112   108   8609 22.4701  0.8670 10.3082  5.8988  4.7818 0.08892  6.724 11.903 25.645 21.371  6.4379 19.2519 32.0110
 2004 060   113   109   8672 21.4469  0.8336  9.8341  5.6996  4.4713 0.08775  6.634 11.661 24.901 20.770  6.4404 19.2498 31.9974
 2004 061   114   110   8740 22.8868  0.8405 10.2525  6.1503  4.7675 0.08796  6.538 11.413 25.838 21.353  6.4430 19.2558 31.9756
 2004 062   115   111   8775 14.3189  0.9105  6.7731  3.5584  3.7425 0.04526  6.412 11.113 23.368 19.881  6.4427 19.2488 31.9847
 2004 063   116   112   8843 21.4295  0.6997  9.5930  6.0069  4.0311 0.09982  6.330 10.914 24.815 19.408  6.4462 19.2232 31.9878
 2004 064   117   113   8906 20.3466  0.7264  8.9909  5.6340  4.1140 0.08833  6.236 10.696 26.155 19.504  6.4488 19.2032 31.9916
 2004 065   118   114   8961 19.2826  0.7871  8.2329  5.0887  4.5525 0.07904  6.124 10.448 27.455 21.055  6.4512 19.2043 31.9760
 2004 066   119   115   8988 15.1777  0.9771  5.8694  3.3132  5.7386 0.05101  5.965 10.110 29.937 25.317  6.4570 19.2143 31.9296
 2004 067   120   116   8982  7.0057  0.9953  3.2162  1.2278  3.4462 0.00000  5.784  9.734 21.758 20.550  6.4545 19.2192 31.9399
 2004 068   121   117   9002 11.0208  0.8805  4.6621  2.4912  3.8651 0.03217  5.627  9.414 24.089 21.176  6.4545 19.2228 31.9365
 2004 069   122   118   9042 15.3677  0.7809  6.3810  3.9594  4.1312 0.05350  5.490  9.140 26.020 20.979  6.4553 19.2243 31.9299
 2004 070   123   119   9065 10.9800  0.4931  4.4125  1.4100  4.3566 0.14743  5.431  9.026 26.340 22.684  6.4208 19.3049 32.0652
 2004 071   124   120   8838 12.2160  0.0000  4.7226  1.5539  3.6431 0.90272  5.592  8.966 24.323 20.208  6.3813 19.3839 32.2329
 2004 072   125   121   8639  8.4065  0.8045  3.7172  1.4308  3.2093 0.00000  5.352  8.148 23.443 19.826  6.3594 19.4252 32.3285
 2004 073   126   122   8456  4.6174  0.7166  1.5564  0.5087  3.2756 0.00000  5.110  7.424 24.095 21.259  6.3588 19.4277 32.3300
 2004 074   127   123   8308  5.0693  0.6527  1.4448  0.4953  3.7672 0.00000  4.864  6.777 26.763 23.219  6.3586 19.4316 32.3274
 2004 075   128   124   8186  4.5104  0.5702  1.1265  0.3234  3.6692 0.00000  4.627  6.213 26.856 23.314  6.3584 19.4346 32.3252
 2004 076   129   125   8084  3.5277  0.5041  0.3884  0.1114  3.5454 0.00000  4.395  5.722 26.866 23.360  6.3584 19.4357 32.3245
 2004 077   130   126   7998  2.7446  0.4379  0.0000  0.0000  3.2011 0.00000  4.177  5.300 26.528 22.316  6.3584 19.4357 32.3245
 2004 078   131   127   7928  1.8500  0.3784  0.0000  0.0000  2.7609 0.00000  3.978  4.938 25.721 20.661  6.3584 19.4357 32.3245
 2004 079   132   128   7870  1.7030  0.3379  0.0000  0.0000  2.5419 0.00000  3.793  4.623 24.779 19.862  6.3584 19.4357 32.3245
 2004 080   133   129   7821  1.3911  0.3019  0.0000  0.0000  2.3187 0.00000  3.622  4.348 24.301 18.821  6.3584 19.4357 32.3245
 2004 081   134   130   7781  1.1143  0.2789  0.0000  0.0000  2.2667 0.00000  3.459  4.103 24.373 18.648  6.3584 19.4357 32.3245
 2004 082   135   131   7747  0.9459  0.2568  0.0000  0.0000  2.1704 0.00000  3.305  3.884 24.209 18.171  6.3584 19.4357 32.3245

*DSSAT Cropping System Model Ver. 4.6.1.000 -release      NOV 11, 2016; 09:12:21
                                                                                
*RUN   5        : UYSB                      CRGRO046 UYSB1062    1              
 MODEL          : CRGRO046 - Soybean                                            
 EXPERIMENT     : UYSB1062 SN late to create DSS                                
 DATA PATH      :                                                               
 TREATMENT  1   : UYSB                      CRGRO046                            
  
@YEAR DOY   DAS   DAP   TWAD    PHAD    CMAD    CGRD    GRAD    MRAD    CHAD   CL%D   CS%D   TGNN   TGAV    GN%D    GL%D    GC%D
 2004 316     4     0      0  0.0000  0.0000  0.0000  0.0000  0.0000 0.00000  0.000  0.000 18.342 16.408  0.0000  0.0000  0.0000
 2004 317     5     1      0  0.0000  0.0000  0.0000  0.0000  0.0000 0.00000  0.000  0.000 19.136 16.414  0.0000  0.0000  0.0000
 2004 318     6     2      0  0.0000  0.0000  0.0000  0.0000  0.0000 0.00000  0.000  0.000 19.578 15.674  0.0000  0.0000  0.0000
 2004 319     7     3      0  0.0000  0.0000  0.0000  0.0000  0.0000 0.00000  0.000  0.000 21.554 17.578  0.0000  0.0000  0.0000
 2004 320     8     4      0  0.0000  0.0000  0.0000  0.0000  0.0000 0.00000  0.000  0.000 24.341 20.580  0.0000  0.0000  0.0000
 2004 321     9     5      0  0.0000  0.0000  0.0000  0.0000  0.0000 0.00000  0.000  0.000 22.560 19.874  0.0000  0.0000  0.0000
 2004 322    10     6      0  0.0000  0.0000  0.0000  0.0000  0.0000 0.00000  0.000  0.000 21.927 17.592  0.0000  0.0000  0.0000
 2004 323    11     7      8  0.0000  0.0004  0.0002  0.0001  0.0000 0.00000  3.959  7.915 20.558 16.294  0.0000  0.0000  0.0000
 2004 324    12     8      8  0.1279  0.0003  0.0814  0.0287  0.0059 0.00000  3.930  7.858 19.289 15.097  0.0000  0.0000  0.0000
 2004 325    13     9      9  0.1468  0.0004  0.0942  0.0326  0.0071 0.00000  3.901  7.806 20.155 15.605  0.0000  0.0000  0.0000
 2004 326    14    10     11  0.1966  0.0004  0.1269  0.0422  0.0104 0.00000  3.870  7.758 22.402 16.920  0.0000  0.0000  0.0000
 2004 327    15    11     12  0.2515  0.0007  0.1614  0.0529  0.0165 0.00000  3.831  7.703 25.161 19.822  0.0000  0.0000  0.0000
 2004 328    16    12     14  0.2708  0.0009  0.1694  0.0554  0.0244 0.00000  3.784  7.634 30.033 23.295  0.0000  0.0000  0.0000
 2004 329    17    13     14  0.1409  0.0010  0.0871  0.0281  0.0152 0.00000  3.729  7.535 24.796 22.681  0.0000  0.0000  0.0000
 2004 330    18    14     16  0.2165  0.0009  0.1388  0.0430  0.0175 0.00000  3.686  7.483 23.388 20.987  0.0000  0.0000  0.0000
 2004 331    19    15     18  0.3114  0.0011  0.2002  0.0618  0.0244 0.00000  3.647  7.453 25.301 21.610  0.0000  0.0000  0.0000
 2004 332    20    16     20  0.2925  0.0011  0.1885  0.0575  0.0231 0.00000  3.610  7.418 24.704 21.012  0.0000  0.0000  0.0000
 2004 333    21    17     22  0.3493  0.0013  0.2135  0.0796  0.0281 0.00000  3.606  7.366 25.352 21.517  0.0000  0.0000  0.0000
 2004 334    22    18     24  0.4854  0.0013  0.2990  0.1123  0.0342 0.00000  3.619  7.346 25.111 20.630  0.0000  0.0000  0.0000
 2004 335    23    19     28  0.5678  0.0014  0.3566  0.1276  0.0363 0.00000  3.624  7.354 24.027 19.582  0.0000  0.0000  0.0000
 2004 336    24    20     32  0.6547  0.0018  0.4078  0.1442  0.0490 0.00000  3.620  7.356 26.958 21.258  0.0000  0.0000  0.0000
 2004 337    25    21     36  0.7478  0.0024  0.4551  0.1582  0.0749 0.00000  3.603  7.344 31.226 25.168  0.0000  0.0000  0.0000
 2004 338    26    22     41  0.7882  0.0030  0.4637  0.1765  0.0864 0.00000  3.596  7.298 30.860 26.487  0.0000  0.0000  0.0000
 2004 339    27    23     46  0.8222  0.0030  0.5026  0.1795  0.0739 0.00000  3.580  7.286 27.204 23.476  0.0000  0.0000  0.0000
 2004 340    28    24     52  1.1419  0.0030  0.7087  0.2468  0.0921 0.00000  3.577  7.322 28.640 22.332  0.0000  0.0000  0.0000
 2004 341    29    25     59  1.1016  0.0038  0.6867  0.2322  0.0926 0.00000  3.557  7.328 26.567 22.732  0.0000  0.0000  0.0000
 2004 342    30    26     63  0.7445  0.0042  0.4481  0.1661  0.0719 0.00000  3.536  7.271 24.304 22.440  0.0000  0.0000  0.0000
 2004 343    31    27     71  1.3126  0.0048  0.8013  0.2875  0.1171 0.00000  3.529  7.267 26.724 23.570  0.0000  0.0000  0.0000
 2004 344    32    28     82  1.8340  0.0044  1.1592  0.3977  0.1212 0.00000  3.535  7.326 23.991 20.479  0.0000  0.0000  0.0000
 2004 345    33    29     95  2.0807  0.0049  1.3225  0.4492  0.1310 0.00000  3.541  7.373 23.999 19.698  0.0000  0.0000  0.0000
 2004 346    34    30    108  2.1223  0.0052  1.3512  0.4653  0.1233 0.00000  3.549  7.399 22.627 18.398  0.0000  0.0000  0.0000
 2004 347    35    31    125  2.6283  0.0072  1.6465  0.5760  0.1830 0.00000  3.557  7.408 25.841 20.573  0.0000  0.0000  0.0000
 2004 348    36    32    142  2.8820  0.0086  1.7975  0.6216  0.2219 0.00000  3.558  7.408 27.949 21.356  0.0000  0.0000  0.0000
 2004 349    37    33    160  3.0217  0.0113  1.8665  0.6371  0.2680 0.00000  3.543  7.386 28.190 23.317  0.0000  0.0000  0.0000
 2004 350    38    34    177  2.9452  0.0132  1.7955  0.6079  0.3036 0.00000  3.519  7.351 30.565 24.545  0.0000  0.0000  0.0000
 2004 351    39    35    198  3.5373  0.0132  2.1323  0.8342  0.2785 0.00000  3.545  7.313 25.563 21.694  0.0000  0.0000  0.0000
 2004 352    40    36    222  3.9405  0.0108  2.4273  0.9483  0.2281 0.00000  3.577  7.312 22.898 17.775  0.0000  0.0000  0.0000
 2004 353    41    37    252  5.1316  0.0153  3.1190  1.2163  0.3646 0.00000  3.599  7.303 26.213 20.587  0.0000  0.0000  0.0000
 2004 354    42    38    278  4.4156  0.0186  2.6606  1.0355  0.3567 0.00000  3.596  7.265 25.571 21.451  0.0000  0.0000  0.0000
 2004 355    43    39    315  6.1592  0.0185  3.7622  1.4617  0.4141 0.00000  3.609  7.264 24.185 20.100  0.0000  0.0000  0.0000
 2004 356    44    40    357  6.9577  0.0178  4.3624  1.6162  0.4010 0.00000  3.647  7.279 23.332 18.030  0.0000  0.0000  0.0000
 2004 357    45    41    409  8.1684  0.0210  5.4228  1.7749  0.4836 0.00000  3.682  7.296 23.806 18.431  0.0000  0.0000  0.0000
 2004 358    46    42    469  9.4782  0.0000  5.9798  1.7965  0.5956 0.29603  4.776  8.270 23.911 19.361  0.0000  0.0000  0.0000
 2004 359    47    43    530 10.5136  0.0424  6.4885  2.3674  0.8301 0.00000  4.635  8.112 26.537 22.059  0.0000  0.0000  0.0000
 2004 360    48    44    605 12.5512  0.0443  7.7719  2.8429  0.8997 0.00000  4.515  7.984 25.183 21.098  0.0000  0.0000  0.0000
 2004 361    49    45    694 13.9279  0.0491  9.3543  2.8947  0.9793 0.01579  4.431  7.930 24.529 20.838  0.0000  0.0000  0.0000
 2004 362    50    46    798 15.9123  0.0000  9.1597  2.6532  1.0752 1.62908  5.925 12.511 24.989 20.115  0.0000  0.0000  0.0000
 2004 363    51    47    906 16.5255  0.0000  9.0142  2.4838  1.3759 2.22865  7.579 17.336 27.274 22.365  0.0000  0.0000  0.0000
 2004 364    52    48    970 11.4491  0.1567  6.8888  2.4553  1.2079 0.12034  7.318 16.630 27.673 23.301  0.0000  0.0000  0.0000
 2004 365    53    49   1080 19.2884  0.1700 11.4427  4.2032  1.8520 0.26909  7.042 15.907 28.439 24.246  0.0000  0.0000  0.0000
 2004 366    54    50   1213 22.4783  0.1703 13.7468  4.6990  2.1257 0.39299  6.850 15.398 30.269 23.747  0.0000  0.0000  0.0000
 2005 001    55    51   1359 23.7127  0.0000 14.5008  4.2107  2.2065 0.83106  7.003 15.804 28.144 23.700  0.0000  0.0000  0.0000
 2005 002    56    52   1515 24.9439  0.0000 13.7957  3.7524  2.6553 2.67790  8.011 18.639 29.743 25.298  0.0000  0.0000  0.0000
 2005 003    57    53   1640 20.5858  0.3066 13.2077  3.7498  2.3389 0.61374  7.856 18.191 28.935 24.741  0.0000  0.0000  0.0000
 2005 004    58    54   1818 29.1311  0.3253 18.1422  5.5398  3.0923 0.96569  7.742 17.872 29.819 25.051  0.0000  0.0000  0.0000
 2005 005    59    55   1989 30.9117  0.3765 17.1793  6.3691  3.7498 1.05325  7.651 17.665 31.736 26.754  0.0000  0.0000  0.0000
 2005 006    60    56   2167 32.4590  0.4164 17.8079  6.5913  4.2270 1.21116  7.600 17.564 32.900 27.559  0.0000  0.0000  0.0000
 2005 007    61    57   2359 34.5363  0.4555 19.5471  6.5951  4.7245 1.41041  7.606 17.570 33.717 28.161  0.0000  0.0000  0.0000
 2005 008    62    58   2514 29.5734  0.4978 15.7877  5.7231  4.4340 1.30367  7.601 17.575 33.714 28.158  0.0000  0.0000  0.0000
 2005 009    63    59   2616 19.9285  0.5111 11.2301  3.7694  2.8382 0.95611  7.599 17.541 26.878 24.692  0.0000  0.0000  0.0000
 2005 010    64    60   2807 33.7411  0.5541 19.6042  6.1852  4.2955 1.70122  7.678 17.720 29.678 26.165  0.0000  0.0000  0.0000
 2005 011    65    61   3018 36.5533  0.5637 21.2712  6.6633  4.5310 1.92858  7.779 17.967 30.886 25.546  0.0000  0.0000  0.0000
 2005 012    66    62   3237 39.3225  0.6364 22.2172  7.1738  5.2519 2.10949  7.886 18.231 32.056 26.644  0.0000  0.0000  0.0000
 2005 013    67    63   3424 35.7093  0.6600 19.1304  6.7952  4.6949 1.94723  7.975 18.446 30.899 25.343  0.0000  0.0000  0.0000
 2005 014    68    64   3623 38.8799  0.7494 20.3792  7.2464  5.8270 2.14813  8.071 18.679 33.286 27.444  0.0000  0.0000  0.0000
 2005 015    69    65   3792 32.8896  0.7710 18.0646  6.1320  4.3556 1.75241  8.141 18.821 27.980 24.504  0.0000  0.0000  0.0000
 2005 016    70    66   4041 41.5388  0.5861 24.5744  7.7912  3.7011 2.50815  8.295 19.207 26.788 19.656  0.0000  0.0000  0.0000
 2005 017    71    67   4264 42.2496  0.7747 22.6479  8.1568  4.9855 2.45504  8.417 19.502 29.933 23.196  0.0000  0.0000  0.0000
[...]
 2010 060   113   109   6948 19.1328  0.7263  7.2648  4.5344  6.0187 0.11706  7.212 12.752 34.611 27.062  6.5761 19.6084 30.7913
 2010 061   114   110   6992 16.5094  0.8847  7.1031  4.3266  4.1408 0.05846  7.058 12.402 27.560 22.897  6.5763 19.6142 30.7836
 2010 062   115   111   7009  9.9652  1.0080  4.4383  2.2387  3.6260 0.01227  6.857 11.964 26.909 22.603  6.5728 19.6240 30.7960
 2010 063   116   112   7043 14.8219  0.9486  5.9935  3.6467  4.6979 0.04279  6.671 11.564 28.694 25.279  6.5767 19.6311 30.7646
 2010 064   117   113   7084 15.6293  0.8400  6.4724  4.0972  4.1314 0.05122  6.505 11.213 27.784 23.232  6.5772 19.6367 30.7556
 2010 065   118   114   7122 14.5730  0.8462  6.0040  3.7856  4.0203 0.04273  6.329 10.849 27.419 23.188  6.5770 19.6430 30.7507
 2010 066   119   115   7170 13.5991  0.0000  5.1567  1.8618  3.8431 0.99131  6.549 11.428 27.421 22.765  6.5170 19.7696 30.9990
 2010 067   120   116   6954  9.1887  1.0085  3.8544  1.8189  3.6809 0.00000  6.245 10.417 26.105 23.441  6.5005 19.8080 31.0641
 2010 068   121   117   6791  8.7607  0.4714  3.4613  1.2070  3.4587 0.11601  6.112  9.810 25.833 23.240  6.4651 19.8840 31.2089
 2010 069   122   118   6641  6.2612  0.7638  2.1835  1.0461  3.5511 0.00000  5.815  9.012 27.959 24.550  6.4648 19.8885 31.2065
 2010 070   123   119   6523  5.7897  0.6276  2.0856  1.0895  2.9222 0.00000  5.543  8.330 26.124 22.433  6.4633 19.8920 31.2124
 2010 071   124   120   6424  3.3132  0.4943  1.2029  0.5110  2.0371 0.00000  5.309  7.766 23.719 18.716  6.4622 19.8871 31.2239
 2010 072   125   121   6336  2.0116  0.4601  0.2550  0.0731  2.1548 0.00000  5.067  7.255 24.300 20.150  6.4620 19.8868 31.2256
 2010 073   126   122   6265  2.1218  0.4220  0.2448  0.0702  2.2383 0.00000  4.830  6.795 24.976 20.792  6.4618 19.8868 31.2270
 2010 074   127   123   6207  1.5862  0.3395  0.3244  0.0931  1.5404 0.00000  4.632  6.416 21.119 16.831  6.4616 19.8837 31.2312
 2010 075   128   124   6158  1.2673  0.3092  0.0289  0.0083  1.5424 0.00000  4.439  6.078 22.724 16.524  6.4616 19.8834 31.2316
 2010 076   129   125   6117  1.2268  0.3181  0.0000  0.0000  2.0005 0.00000  4.233  5.749 25.409 19.849  6.4616 19.8834 31.2316
 2010 077   130   126   6081  0.4071  0.3059  0.0000  0.0000  2.0296 0.00000  4.030  5.441 22.437 21.021  6.4616 19.8834 31.2316
 2010 078   131   127   6051  0.3755  0.2882  0.0000  0.0000  2.0997 0.00000  3.834  5.157 24.520 21.370  6.4616 19.8834 31.2316

*DSSAT Cropping System Model Ver. 4.6.1.000 -release      NOV 11, 2016; 09:12:21
                                                                                
*RUN  11        : UYSB                      CRGRO046 UYSB1062    1              
 MODEL          : CRGRO046 - Soybean                                            
 EXPERIMENT     : UYSB1062 SN late to create DSS                                
 DATA PATH      :                                                               
 TREATMENT  1   : UYSB                      CRGRO046                            
  
@YEAR DOY   DAS   DAP   TWAD    PHAD    CMAD    CGRD    GRAD    MRAD    CHAD   CL%D   CS%D   TGNN   TGAV    GN%D    GL%D    GC%D
 2010 316     4     0      0  0.0000  0.0000  0.0000  0.0000  0.0000 0.00000  0.000  0.000 18.891 14.021  0.0000  0.0000  0.0000
 2010 317     5     1      0  0.0000  0.0000  0.0000  0.0000  0.0000 0.00000  0.000  0.000 20.270 15.077  0.0000  0.0000  0.0000
 2010 318     6     2      0  0.0000  0.0000  0.0000  0.0000  0.0000 0.00000  0.000  0.000 21.029 16.230  0.0000  0.0000  0.0000
 2010 319     7     3      0  0.0000  0.0000  0.0000  0.0000  0.0000 0.00000  0.000  0.000 21.979 18.326  0.0000  0.0000  0.0000
 2010 320     8     4      0  0.0000  0.0000  0.0000  0.0000  0.0000 0.00000  0.000  0.000 21.480 18.077  0.0000  0.0000  0.0000
 2010 321     9     5      0  0.0000  0.0000  0.0000  0.0000  0.0000 0.00000  0.000  0.000 22.970 18.242  0.0000  0.0000  0.0000
 2010 322    10     6      0  0.0000  0.0000  0.0000  0.0000  0.0000 0.00000  0.000  0.000 23.607 17.410  0.0000  0.0000  0.0000
 2010 323    11     7      8  0.0000  0.0004  0.0003  0.0001  0.0000 0.00000  3.954  7.904 23.771 17.466  0.0000  0.0000  0.0000
 2010 324    12     8      9  0.1657  0.0005  0.1171  0.0307  0.0129 0.00000  3.921  7.809 27.225 21.564  0.0000  0.0000  0.0000
 2010 325    13     9     10  0.2060  0.0007  0.1418  0.0376  0.0182 0.00000  3.876  7.715 26.525 23.981  0.0000  0.0000  0.0000
 2010 326    14    10     12  0.2326  0.0006  0.1573  0.0449  0.0158 0.00000  3.841  7.667 24.641 20.305  0.0000  0.0000  0.0000
 2010 327    15    11     13  0.2104  0.0007  0.1284  0.0455  0.0154 0.00000  3.788  7.608 24.309 20.403  0.0000  0.0000  0.0000
 2010 328    16    12     14  0.2153  0.0009  0.1330  0.0447  0.0185 0.00000  3.735  7.543 26.815 21.870  0.0000  0.0000  0.0000
 2010 329    17    13     16  0.3397  0.0008  0.2188  0.0697  0.0217 0.00000  3.705  7.535 25.633 19.146  0.0000  0.0000  0.0000
 2010 330    18    14     19  0.3714  0.0011  0.2355  0.0742  0.0309 0.00000  3.667  7.502 28.514 22.493  0.0000  0.0000  0.0000
 2010 331    19    15     21  0.3635  0.0013  0.2279  0.0711  0.0354 0.00000  3.628  7.458 30.884 23.716  0.0000  0.0000  0.0000
 2010 332    20    16     22  0.2363  0.0009  0.1442  0.0577  0.0150 0.00000  3.631  7.408 20.180 16.954  0.0000  0.0000  0.0000
 2010 333    21    17     24  0.2908  0.0009  0.1800  0.0705  0.0162 0.00000  3.640  7.379 20.878 15.788  0.0000  0.0000  0.0000
 2010 334    22    18     27  0.5397  0.0012  0.3383  0.1228  0.0334 0.00000  3.652  7.386 26.324 17.901  0.0000  0.0000  0.0000
 2010 335    23    19     31  0.6206  0.0018  0.3862  0.1353  0.0519 0.00000  3.660  7.367 29.209 22.327  0.0000  0.0000  0.0000
 2010 336    24    20     35  0.6779  0.0023  0.4151  0.1422  0.0697 0.00000  3.653  7.344 32.132 25.035  0.0000  0.0000  0.0000
 2010 337    25    21     39  0.7247  0.0025  0.4585  0.1515  0.0661 0.00000  3.667  7.322 28.822 23.553  0.0000  0.0000  0.0000
 2010 338    26    22     44  0.8993  0.0024  0.5379  0.2083  0.0694 0.00000  3.659  7.328 28.399 21.194  0.0000  0.0000  0.0000
 2010 339    27    23     51  1.0855  0.0030  0.6670  0.2387  0.0883 0.00000  3.646  7.344 28.385 22.471  0.0000  0.0000  0.0000
 2010 340    28    24     58  1.2228  0.0031  0.7648  0.2650  0.0901 0.00000  3.637  7.373 28.052 20.703  0.0000  0.0000  0.0000
 2010 341    29    25     67  1.3646  0.0033  0.8555  0.2880  0.1074 0.00000  3.628  7.404 30.583 20.367  0.0000  0.0000  0.0000
 2010 342    30    26     74  1.1814  0.0041  0.7307  0.2634  0.0900 0.00000  3.620  7.383 26.885 20.146  0.0000  0.0000  0.0000
 2010 343    31    27     83  1.6958  0.0062  1.0144  0.3692  0.1769 0.00000  3.606  7.351 30.369 25.997  0.0000  0.0000  0.0000
 2010 344    32    28     94  1.7358  0.0052  1.0606  0.3727  0.1605 0.00000  3.599  7.356 32.154 22.370  0.0000  0.0000  0.0000
 2010 345    33    29    103  1.5665  0.0069  0.9543  0.3307  0.1560 0.00000  3.574  7.327 30.118 23.452  0.0000  0.0000  0.0000
 2010 346    34    30    107  0.7685  0.0039  0.4810  0.1735  0.0506 0.00000  3.563  7.303 19.240 15.047  0.0000  0.0000  0.0000
 2010 347    35    31    120  2.0194  0.0044  1.2883  0.4518  0.1040 0.00000  3.574  7.343 23.348 15.142  0.0000  0.0000  0.0000
 2010 348    36    32    137  2.7663  0.0065  1.7472  0.6011  0.1812 0.00000  3.578  7.379 27.130 18.602  0.0000  0.0000  0.0000
 2010 349    37    33    155  2.9918  0.0101  1.8468  0.6369  0.2601 0.00000  3.567  7.373 29.351 22.758  0.0000  0.0000  0.0000
 2010 350    38    34    175  3.3514  0.0120  2.0803  0.6965  0.3044 0.00000  3.556  7.364 29.538 23.447  0.0000  0.0000  0.0000
 2010 351    39    35    196  3.6896  0.0149  2.2184  0.8152  0.3763 0.00000  3.598  7.311 30.505 25.130  0.0000  0.0000  0.0000
 2010 352    40    36    216  3.6250  0.0172  2.0662  0.8472  0.3899 0.00000  3.585  7.251 30.085 25.463  0.0000  0.0000  0.0000
 2010 353    41    37    229  2.3654  0.0148  1.4122  0.5525  0.2116 0.00000  3.568  7.195 22.902 20.753  0.0000  0.0000  0.0000
 2010 354    42    38    254  4.4214  0.0199  2.6160  1.0184  0.4319 0.00000  3.562  7.158 27.143 24.563  0.0000  0.0000  0.0000
 2010 355    43    39    293  6.7200  0.0203  4.0099  1.5577  0.5975 0.00000  3.580  7.173 29.686 23.990  0.0000  0.0000  0.0000
 2010 356    44    40    340  8.1084  0.0252  4.7992  1.8600  0.7855 0.00000  3.591  7.183 30.806 25.432  0.0000  0.0000  0.0000
 2010 357    45    41    394  9.4912  0.0291  5.7385  2.1045  0.8950 0.00000  3.628  7.193 30.419 25.080  0.0000  0.0000  0.0000
 2010 358    46    42    424  5.1268  0.0000  3.2615  0.8877  0.5228 0.07947  3.998  7.519 25.696 23.259  0.0000  0.0000  0.0000
 2010 359    47    43    500 11.9754  0.0000  6.6743  1.8812  1.1964 1.23088  8.024 10.988 30.831 26.066  0.0000  0.0000  0.0000
 2010 360    48    44    581 13.6932  0.0667  8.5221  2.9546  1.2788 0.00000  7.345 10.339 31.032 24.654  0.0000  0.0000  0.0000
 2010 361    49    45    668 15.2531  0.0785  9.1981  3.3511  1.5471 0.00000  6.800  9.812 31.437 25.883  0.0000  0.0000  0.0000
 2010 362    50    46    771 17.3524  0.0754 10.6990  3.8484  1.3708 0.05489  6.410  9.551 27.656 22.424  0.0000  0.0000  0.0000
 2010 363    51    47    877 17.8811  0.0948 11.1220  3.7775  1.6499 0.12178  6.146  9.484 28.321 24.343  0.0000  0.0000  0.0000
 2010 364    52    48   1013 21.4865  0.0000 12.9755  3.8336  1.6750 1.15965  6.716 11.727 27.060 22.115  0.0000  0.0000  0.0000
 2010 365    53    49   1158 23.0813  0.0000 13.3771  3.8651  2.1210 1.76978  7.508 14.424 28.765 24.106  0.0000  0.0000  0.0000
 2011 001    54    50   1288 20.8020  0.1853 13.5725  3.9801  2.0481 0.37601  7.269 14.080 29.164 23.967  0.0000  0.0000  0.0000
 2011 002    55    51   1401 19.2127  0.1935 11.8961  3.9079  1.7819 0.39477  7.121 13.898 25.884 22.622  0.0000  0.0000  0.0000
 2011 003    56    52   1474 13.3304  0.1910  7.0707  3.2016  1.3373 0.28301  6.959 13.753 23.424 21.345  0.0000  0.0000  0.0000
 2011 004    57    53   1592 20.9636  0.2354 12.1986  4.3799  2.2805 0.56770  6.888 13.755 28.546 24.388  0.0000  0.0000  0.0000
 2011 005    58    54   1709 21.1964  0.2625 12.2156  4.3517  2.4607 0.65211  6.850 13.823 28.852 24.981  0.0000  0.0000  0.0000
 2011 006    59    55   1916 32.7968  0.2780 20.7159  6.0368  3.4466 1.21939  6.900 14.166 30.294 25.204  0.0000  0.0000  0.0000
 2011 007    60    56   2118 34.1707  0.3650 20.4415  5.7416  4.6721 1.38994  6.969 14.534 33.141 28.983  0.0000  0.0000  0.0000
 2011 008    61    57   2316 32.3608  0.3842 20.0259  5.6839  3.9587 1.44001  7.044 14.872 30.699 26.433  0.0000  0.0000  0.0000
 2011 009    62    58   2511 34.1504  0.4379 19.8114  6.3051  4.4547 1.55222  7.126 15.207 31.556 27.183  0.0000  0.0000  0.0000
 2011 010    63    59   2637 23.2038  0.4070 12.9091  4.5563  2.8583 1.13182  7.166 15.395 28.881 23.254  0.0000  0.0000  0.0000
 2011 011    64    60   2768 24.3574  0.4483 13.6498  4.7217  2.8806 1.24149  7.225 15.609 25.813 23.197  0.0000  0.0000  0.0000
 2011 012    65    61   2941 31.2561  0.4935 17.7448  5.9358  3.5355 1.64427  7.331 15.942 27.055 23.757  0.0000  0.0000  0.0000
 2011 013    66    62   3161 38.5990  0.5178 22.0131  7.4337  4.0034 2.12199  7.481 16.403 27.441 23.319  0.0000  0.0000  0.0000
 2011 014    67    63   3388 40.9334  0.5836 22.7887  7.9399  4.3924 2.30558  7.634 16.859 27.765 23.715  0.0000  0.0000  0.0000
 2011 015    68    64   3616 42.5650  0.6848 22.9164  8.0964  5.4805 2.43279  7.778 17.283 31.054 25.930  0.0000  0.0000  0.0000
 2011 016    69    65   3792 34.6146  0.7838 18.4978  6.2651  5.5589 1.92781  7.860 17.515 32.624 27.427  0.0000  0.0000  0.0000
 2011 017    70    66   3974 34.9644  0.7685 19.1498  6.5102  4.6395 1.96047  7.954 17.766 28.848 24.511  0.0000  0.0000  0.0000
 2011 018    71    67   4195 41.7380  0.8037 22.5529  7.8485  5.3558 2.47274  8.088 18.131 30.061 24.722  0.0000  0.0000  0.0000
 2011 019    72    68   4423 42.7376  0.8753 23.4505  7.8592  5.7232 2.46316  8.210 18.458 30.530 25.119  0.0000  0.0000  0.0000
 2011 020    73    69   4652 43.5187  0.9344 23.8596  8.0754  5.7632 2.40378  8.322 18.747 29.790 24.810  0.0000  0.0000  0.0000
 2011 021    74    70   4887 43.4215  0.8324 24.0199  8.3852  4.7777 2.37085  8.441 19.053 28.035 21.622  0.0000  0.0000  0.0000
 2011 022    75    71   5092 41.8656  1.0851 22.1488  7.8832  6.1545 2.06933  8.512 19.219 30.020 25.398  0.0000  0.0000  0.0000
 2011 023    76    72   5300 43.9815  1.1518 22.5757  8.4158  6.6432 2.07798  8.581 19.374 30.502 25.845  0.0000  0.0000  0.0000
 2011 024    77    73   5474 40.1818  1.3421 20.1120  7.2416  7.9736 1.61868  8.596 19.384 32.989 29.084  0.0000  0.0000  0.0000
 2011 025    78    74   5645 39.3915  1.2948 20.0798  7.4451  7.0131 1.33024  8.600 19.355 31.088 26.933  0.0000  0.0000  0.0000
 2011 026    79    75   5710 21.5468  0.0000  9.8178  3.1776  5.7431 0.75743  8.755 19.652 33.817 26.402  0.0000  0.0000  0.0000
 2011 027    80    76   5838 36.3787  1.4182 17.9657  7.2973  6.7501 0.72081  8.692 19.457 30.680 26.526  6.5929 20.5000 29.7944
 2011 028    81    77   5990 41.1598  1.4840 20.5781  7.7856  7.5591 1.60782  8.709 19.470 31.448 27.222  6.6373 20.5000 29.5168
 2011 029    82    78   6131 41.2708  1.5079 20.6044  8.2214  7.3141 1.19068  8.696 19.389 30.874 26.469  6.6093 20.5000 29.6917
 2011 030    83    79   6182 24.2366  1.1530 12.3240  4.5828  5.8447 0.10221  8.638 19.155 30.413 25.866  6.5740 20.5000 29.9128
 2011 031    84    80   6190 19.7881  1.5532 10.0026  3.7214  5.6529 0.00000  8.519 18.779 30.636 26.161  6.5687 20.5000 29.9457
 2011 032    85    81   6288 35.2853  1.4463 17.0083  8.3459  5.6402 0.00000  8.413 18.426 26.626 23.654  6.4821 20.5000 30.4868
 2011 033    86    82   6458 43.7451  1.2738 23.1844  9.6187  5.5940 1.02582  8.418 18.390 28.104 21.553  6.4032 20.4051 31.0746
 2011 034    87    83   6578 42.0239  1.4885 19.6210  9.5833  7.3657 0.51842  8.357 18.168 32.183 25.346  6.4245 20.4287 30.9184
 2011 035    88    84   6657 34.4417  1.5636 16.6321  8.0689  6.4633 0.00000  8.242 17.788 29.345 24.943  6.4314 20.4461 30.8577
 2011 036    89    85   6758 41.2946  1.6119 19.0848  9.6864  8.0164 0.00899  8.122 17.395 32.082 26.786  6.4700 20.4573 30.6051
 2011 037    90    86   6846 34.8496  1.5766 16.6537  8.3880  6.6316 0.00000  8.005 17.005 28.950 25.086  6.4691 20.4661 30.6020
 2011 038    91    87   6896 32.0556  1.5649 15.4480  7.7539  6.4661 0.00000  7.890 16.615 28.931 25.032  6.4676 20.4723 30.6053
 2011 039    92    88   6922 18.2980  1.2070  9.8808  4.4274  4.1015 0.04246  7.822 16.331 22.396 21.394  6.4509 20.3642 30.8175
 2011 040    93    89   6985 22.2826  1.1076 11.8364  5.7131  4.1811 0.06202  7.774 16.080 22.066 20.993  6.4405 20.2373 31.0095
 2011 041    94    90   7026 22.7028  1.1197 12.1058  5.7010  4.4020 0.06430  7.729 15.823 23.741 21.381  6.4347 20.1626 31.1203
 2011 042    95    91   7134 37.8401  1.4095 18.3733 10.0031  5.9364 0.00000  7.638 15.453 25.211 23.030  6.4151 20.2041 31.2016
 2011 043    96    92   7214 28.8370  1.0035 14.6012  7.6335  4.9527 0.09816  7.611 15.233 24.686 21.720  6.4213 20.1409 31.2260
 2011 044    97    93   7330 37.7924  1.2882 18.4937 10.4059  5.3591 0.00000  7.524 14.882 25.272 21.305  6.3984 20.1228 31.3871
 2011 045    98    94   7447 37.0893  1.2477 18.2037 10.4353  5.1985 0.00000  7.436 14.536 25.063 20.847  6.3813 20.0810 31.5358
 2011 046    99    95   7570 35.0673  1.0994 17.5800 10.1304  4.3281 0.00000  7.358 14.225 24.460 18.315  6.3666 19.9100 31.7988
 2011 047   100    96   7685 35.7424  0.8108 17.0059  9.9029  5.6609 0.13685  7.347 14.058 26.837 21.622  6.3799 19.8785 31.7475
 2011 048   101    97   7759 34.9188  0.9567 15.8532  9.2089  7.2703 0.13606  7.315 13.843 29.291 25.184  6.4128 19.8752 31.5450
 2011 049   102    98   7839 31.8565  0.9723 14.4443  8.2880  6.9462 0.12355  7.269 13.609 29.270 25.128  6.4381 19.8728 31.3889
 2011 050   103    99   7931 31.3936  0.8791 14.7381  8.5738  5.5081 0.11617  7.226 13.394 25.678 22.287  6.4444 19.8650 31.3575
 2011 051   104   100   8016 27.9103  0.9194 13.1488  7.4885  5.2539 0.10022  7.167 13.153 25.323 22.290  6.4488 19.8599 31.3349
 2011 052   105   101   8052 17.7976  1.1988  8.6413  4.0230  5.3055 0.03100  7.041 12.783 27.368 23.978  6.4507 19.8724 31.3110
 2011 053   106   102   8122 25.4122  1.0157 11.5640  6.6076  5.7551 0.07992  6.946 12.489 27.224 23.977  6.4584 19.8765 31.2585
 2011 054   107   103   8146 13.0043  1.1221  6.6989  2.8511  4.0227 0.01155  6.808 12.121 22.575 21.576  6.4538 19.8807 31.2834
 2011 055   108   104   8202 20.0666  0.9097  9.4172  5.2438  4.3428 0.06769  6.710 11.845 23.849 21.389  6.4543 19.8698 31.2909
 2011 056   109   105   8259 20.4834  0.9178  9.3599  5.3312  4.6262 0.06956  6.604 11.564 24.506 22.189  6.4562 19.8664 31.2823
 2011 057   110   106   8341 25.6639  0.7170 11.4311  7.2037  4.5528 0.11553  6.536 11.370 24.211 21.218  6.4607 19.8437 31.2770
 2011 058   111   107   8417 22.5896  0.5928 10.3097  6.6387  3.5406 0.11938  6.484 11.219 23.536 18.299  6.4668 19.7640 31.3185
 2011 059   112   108   8493 23.1425  0.7004 10.3662  6.6636  4.0293 0.09585  6.402 11.016 26.025 19.400  6.4688 19.7206 31.3497
 2011 060   113   109   8559 21.6455  0.7582  9.5111  6.0288  4.2251 0.09092  6.305 10.787 25.123 20.814  6.4709 19.7043 31.3526
 2011 061   114   110   8620 20.9557  0.7741  8.8714  5.6535  4.6452 0.09176  6.200 10.549 27.211 21.978  6.4746 19.6986 31.3352
 2011 062   115   111   8675 19.8934  0.8058  8.2707  5.2727  4.7833 0.08172  6.082 10.291 27.871 22.569  6.4782 19.6975 31.3136
 2011 063   116   112   8725 18.8664  0.8105  7.7450  4.9512  4.7405 0.07920  5.957 10.026 27.255 22.843  6.4822 19.6967 31.2899
 2011 064   117   113   8779 18.0113  0.7391  7.7436  5.0346  3.8042 0.06980  5.839  9.781 25.733 19.936  6.4828 19.6767 31.3055
 2011 065   118   114   8820 16.3096  0.8039  6.5776  4.1870  4.4649 0.06530  5.703  9.506 27.539 22.455  6.4853 19.6758 31.2910
 2011 066   119   115   8848 14.0078  0.8628  5.3700  3.3138  4.7730 0.05024  5.547  9.198 28.726 23.857  6.4885 19.6773 31.2696
 2011 067   120   116   8878 14.0057  0.9859  5.6450  2.2945  5.2994 0.01237  5.353  8.818 29.773 25.473  6.4477 19.7740 31.4279
 2011 068   121   117   8626 11.6937  0.4547  4.3716  1.5128  4.8341 0.15746  5.263  8.188 29.101 24.661  6.4134 19.8525 31.5637
 2011 069   122   118   8418  8.9677  0.8172  3.4129  1.3833  4.1104 0.00000  5.011  7.382 27.330 23.638  6.3945 19.8959 31.6387
 2011 070   123   119   8245  7.9968  0.6964  2.6269  1.2464  4.1998 0.00000  4.765  6.680 28.902 24.500  6.3860 19.9177 31.6699
 2011 071   124   120   8094  5.7473  0.5982  1.5998  0.7138  3.8939 0.00000  4.528  6.071 28.336 24.469  6.3861 19.9201 31.6669
 2011 072   125   121   7978  3.7223  0.4126  1.4307  0.6826  1.8670 0.00000  4.348  5.600 20.567 16.347  6.3835 19.9126 31.6906
 2011 073   126   122   7881  2.7818  0.3502  0.9938  0.4536  1.6984 0.00000  4.182  5.201 21.651 15.021  6.3837 19.8999 31.7019
 2011 074   127   123   7799  2.1990  0.3251  0.6290  0.1827  1.7844 0.00000  4.015  4.846 22.117 16.092  6.3837 19.8940 31.7080
 2011 075   128   124   7728  1.9840  0.3246  0.0000  0.0000  2.3742 0.00000  3.832  4.518 26.211 19.339  6.3837 19.8940 31.7080
 2011 076   129   125   7666  0.7267  0.3267  0.0000  0.0000  2.9322 0.00000  3.639  4.210 27.990 23.032  6.3837 19.8940 31.7080
 2011 077   130   126   7617  1.1628  0.2734  0.0000  0.0000  2.1957 0.00000  3.470  3.952 23.879 19.560  6.3837 19.8940 31.7080
 2011 078   131   127   7577  0.8279  0.2201  0.0000  0.0000  1.5536 0.00000  3.330  3.742 21.923 15.165  6.3837 19.8940 31.7080
 2011 079   132   128   7542  0.8432  0.2294  0.0000  0.0000  2.0606 0.00000  3.180  3.538 24.910 18.580  6.3837 19.8940 31.7080
