*PLANT C OUTPUT FILE

*DSSAT Cropping System Model Ver. 4.6.1.000 -release      OCT 17, 2016; 11:24:59
                                                                                
*RUN   1        : UYSB                      CRGRO046 UYSB0874    1              
 MODEL          : CRGRO046 - Soybean                                            
 EXPERIMENT     : UYSB0874 SN late to create DSS                                
 DATA PATH      :                                                               
 TREATMENT  1   : UYSB                      CRGRO046                            
  
@YEAR DOY   DAS   DAP   TWAD    PHAD    CMAD    CGRD    GRAD    MRAD    CHAD   CL%D   CS%D   TGNN   TGAV    GN%D    GL%D    GC%D
 1990 291     4     0      0  0.0000  0.0000  0.0000  0.0000  0.0000 0.00000  0.000  0.000 22.982 19.628  0.0000  0.0000  0.0000
 1990 292     5     1      0  0.0000  0.0000  0.0000  0.0000  0.0000 0.00000  0.000  0.000 18.519 17.377  0.0000  0.0000  0.0000
 1990 293     6     2      0  0.0000  0.0000  0.0000  0.0000  0.0000 0.00000  0.000  0.000 22.613 18.829  0.0000  0.0000  0.0000
 1990 294     7     3      0  0.0000  0.0000  0.0000  0.0000  0.0000 0.00000  0.000  0.000 22.565 18.174  0.0000  0.0000  0.0000
 1990 295     8     4      0  0.0000  0.0000  0.0000  0.0000  0.0000 0.00000  0.000  0.000 24.110 17.646  0.0000  0.0000  0.0000
 1990 296     9     5      0  0.0000  0.0000  0.0000  0.0000  0.0000 0.00000  0.000  0.000 20.230 16.444  0.0000  0.0000  0.0000
 1990 297    10     6      0  0.0000  0.0000  0.0000  0.0000  0.0000 0.00000  0.000  0.000 18.584 15.154  0.0000  0.0000  0.0000
 1990 298    11     7      8  0.0000  0.0004  0.0003  0.0001  0.0000 0.00000  3.952  7.900 21.953 17.951  0.0000  0.0000  0.0000
 1990 299    12     8      9  0.1638  0.0005  0.1036  0.0348  0.0113 0.00000  3.902  7.809 23.540 20.466  0.0000  0.0000  0.0000
 1990 300    13     9     10  0.1743  0.0007  0.1079  0.0363  0.0157 0.00000  3.845  7.708 27.409 23.512  0.0000  0.0000  0.0000
 1990 301    14    10     10  0.1112  0.0007  0.0682  0.0232  0.0114 0.00000  3.790  7.605 25.862 22.572  0.0000  0.0000  0.0000
 1990 302    15    11     11  0.0948  0.0006  0.0595  0.0204  0.0075 0.00000  3.752  7.537 19.509 18.543  0.0000  0.0000  0.0000
 1990 303    16    12     12  0.2707  0.0006  0.1780  0.0546  0.0170 0.00000  3.729  7.534 23.639 19.777  0.0000  0.0000  0.0000
 1990 304    17    13     13  0.1419  0.0007  0.0904  0.0293  0.0102 0.00000  3.694  7.485 21.020 18.337  0.0000  0.0000  0.0000
 1990 305    18    14     15  0.2644  0.0007  0.1729  0.0537  0.0148 0.00000  3.673  7.485 22.020 17.584  0.0000  0.0000  0.0000
 1990 306    19    15     17  0.3198  0.0008  0.2091  0.0634  0.0191 0.00000  3.653  7.486 24.168 18.085  0.0000  0.0000  0.0000
 1990 307    20    16     19  0.2777  0.0012  0.1770  0.0543  0.0241 0.00000  3.612  7.436 26.088 22.044  0.0000  0.0000  0.0000
 1990 308    21    17     20  0.1887  0.0005  0.1159  0.0469  0.0089 0.00000  3.628  7.411 17.709 13.199  0.0000  0.0000  0.0000
 1990 309    22    18     21  0.2232  0.0005  0.1357  0.0571  0.0089 0.00000  3.655  7.393 16.557 12.154  0.0000  0.0000  0.0000
 1990 310    23    19     22  0.2346  0.0006  0.1451  0.0560  0.0108 0.00000  3.664  7.377 18.538 13.061  0.0000  0.0000  0.0000
 1990 311    24    20     24  0.2735  0.0009  0.1675  0.0644  0.0151 0.00000  3.664  7.345 18.644 15.958  0.0000  0.0000  0.0000
 1990 312    25    21     25  0.1696  0.0008  0.1021  0.0405  0.0108 0.00000  3.656  7.305 17.908 14.614  0.0000  0.0000  0.0000
 1990 313    26    22     26  0.1937  0.0010  0.1174  0.0458  0.0126 0.00000  3.645  7.266 17.660 15.511  0.0000  0.0000  0.0000
 1990 314    27    23     29  0.4883  0.0013  0.3091  0.1046  0.0295 0.00000  3.634  7.291 21.657 18.470  0.0000  0.0000  0.0000
 1990 315    28    24     32  0.5282  0.0013  0.3371  0.1143  0.0280 0.00000  3.630  7.322 21.232 16.683  0.0000  0.0000  0.0000
 1990 316    29    25     36  0.5357  0.0015  0.3363  0.1193  0.0315 0.00000  3.626  7.330 22.806 17.147  0.0000  0.0000  0.0000
 1990 317    30    26     40  0.8457  0.0029  0.4925  0.1808  0.1017 0.00000  3.612  7.305 34.191 27.957  0.0000  0.0000  0.0000
 1990 318    31    27     43  0.4673  0.0027  0.3180  0.0886  0.0434 0.00000  3.617  7.261 23.875 21.474  0.0000  0.0000  0.0000
 1990 319    32    28     46  0.5576  0.0024  0.3643  0.1104  0.0409 0.00000  3.620  7.251 20.677 19.315  0.0000  0.0000  0.0000
 1990 320    33    29     52  0.8679  0.0000  0.5655  0.1496  0.0418 0.03673  5.135  8.528 19.336 16.040  0.0000  0.0000  0.0000
 1990 321    34    30     60  1.1782  0.0028  0.7666  0.2491  0.0619 0.00000  4.988  8.356 23.016 16.781  0.0000  0.0000  0.0000
 1990 322    35    31     66  1.2310  0.0049  0.6276  0.3065  0.1000 0.00000  4.756  8.182 25.978 22.251  0.0000  0.0000  0.0000
 1990 323    36    32     73  1.2979  0.0058  0.7532  0.2818  0.1222 0.00000  4.591  8.022 27.900 23.958  0.0000  0.0000  0.0000
 1990 324    37    33     78  0.9169  0.0070  0.5256  0.1899  0.1154 0.00000  4.463  7.867 29.003 25.849  0.0000  0.0000  0.0000
 1990 325    38    34     92  2.1723  0.0060  1.3513  0.4499  0.1625 0.00000  4.345  7.791 26.927 21.981  0.0000  0.0000  0.0000
 1990 326    39    35    106  2.3357  0.0062  1.4587  0.4998  0.1573 0.00000  4.247  7.735 26.006 20.199  0.0000  0.0000  0.0000
 1990 327    40    36    122  2.6072  0.0072  1.6429  0.5484  0.1729 0.00000  4.167  7.691 25.108 20.090  0.0000  0.0000  0.0000
 1990 328    41    37    137  2.5053  0.0091  1.5688  0.5245  0.1912 0.00000  4.093  7.635 25.462 21.376  0.0000  0.0000  0.0000
 1990 329    42    38    155  3.0679  0.0112  1.9103  0.6444  0.2537 0.00000  4.021  7.584 26.985 22.683  0.0000  0.0000  0.0000
 1990 330    43    39    172  2.7986  0.0103  1.7041  0.6486  0.1937 0.00000  3.969  7.529 23.842 19.684  0.0000  0.0000  0.0000
 1990 331    44    40    190  2.9549  0.0076  1.8389  0.6931  0.1411 0.00000  3.941  7.513 19.645 15.486  0.0000  0.0000  0.0000
 1990 332    45    41    213  3.7816  0.0095  2.3359  0.8786  0.2082 0.00000  3.913  7.497 23.723 16.554  0.0000  0.0000  0.0000
 1990 333    46    42    240  4.5451  0.0121  2.7953  1.0731  0.2711 0.00000  3.885  7.479 24.661 17.852  0.0000  0.0000  0.0000
 1990 334    47    43    262  3.7771  0.0171  2.2817  0.8783  0.2971 0.00000  3.845  7.423 25.386 20.512  0.0000  0.0000  0.0000
 1990 335    48    44    294  5.2112  0.0142  3.2219  1.2509  0.2888 0.00000  3.826  7.414 22.335 17.319  0.0000  0.0000  0.0000
 1990 336    49    45    309  2.5819  0.0164  1.5697  0.6094  0.1941 0.00000  3.794  7.362 19.862 17.605  0.0000  0.0000  0.0000
 1990 337    50    46    345  5.9161  0.0149  3.6756  1.4252  0.3027 0.00000  3.784  7.367 21.608 16.234  0.0000  0.0000  0.0000
 1990 338    51    47    386  6.7425  0.0178  4.1753  1.6028  0.3688 0.00000  3.773  7.369 22.799 16.852  0.0000  0.0000  0.0000
 1990 339    52    48    426  6.9934  0.0339  4.1215  1.5699  0.7013 0.01227  3.756  7.380 29.199 24.327  0.0000  0.0000  0.0000
 1990 340    53    49    447  4.2035  0.0269  2.5688  0.9515  0.3369 0.01856  3.760  7.422 20.458 18.989  0.0000  0.0000  0.0000
 1990 341    54    50    510  9.7487  0.0000  6.1058  1.8018  0.5599 0.40050  4.402  9.308 22.026 18.301  0.0000  0.0000  0.0000
 1990 342    55    51    565 10.2288  0.0339  5.2052  2.6744  0.5673 0.07867  4.369  9.384 21.548 17.609  0.0000  0.0000  0.0000
 1990 343    56    52    596  5.6536  0.0399  3.0504  1.3702  0.4220 0.05847  4.355  9.413 20.677 18.170  0.0000  0.0000  0.0000
 1990 344    57    53    622  5.1990  0.0416  3.2520  1.1035  0.4038 0.07555  4.400  9.494 18.884 18.024  0.0000  0.0000  0.0000
 1990 345    58    54    706 13.1106  0.0460  8.4617  2.4653  0.7865 0.24547  4.577  9.955 22.834 18.573  0.0000  0.0000  0.0000
 1990 346    59    55    755  9.6888  0.0391  4.3270  2.6638  0.5034 0.13259  4.570 10.116 20.272 15.295  0.0000  0.0000  0.0000
 1990 347    60    56    796  8.1088  0.0448  4.3517  1.9628  0.4627 0.14802  4.648 10.301 18.059 15.768  0.0000  0.0000  0.0000
 1990 348    61    57    875 13.6040  0.0503  7.9135  3.0881  0.7257 0.29674  4.803 10.704 21.898 16.170  0.0000  0.0000  0.0000
 1990 349    62    58    978 17.6634  0.0724 10.2131  3.9389  1.1113 0.42680  4.981 11.193 24.447 18.576  0.0000  0.0000  0.0000
 1990 350    63    59   1092 19.8215  0.1032 11.2920  4.4283  1.5011 0.53073  5.160 11.689 25.720 21.138  0.0000  0.0000  0.0000
 1990 351    64    60   1190 17.4154  0.1141  9.7897  3.9844  1.3459 0.50991  5.303 12.083 24.947 20.437  0.0000  0.0000  0.0000
 1990 352    65    61   1275 15.5042  0.1256  8.5948  3.6175  1.2323 0.49116  5.422 12.409 22.964 20.136  0.0000  0.0000  0.0000
 1990 353    66    62   1392 20.5765  0.1275 11.5535  4.7849  1.4131 0.71512  5.601 12.895 23.427 19.131  0.0000  0.0000  0.0000
 1990 354    67    63   1526 23.7652  0.1553 13.2158  5.4561  1.7260 0.88585  5.796 13.423 24.253 20.029  0.0000  0.0000  0.0000
 1990 355    68    64   1672 26.0248  0.1856 14.4308  5.8722  2.0457 1.05913  6.000 13.969 26.329 20.673  0.0000  0.0000  0.0000
 1990 356    69    65   1730 13.0542  0.2580  6.4998  2.9754  1.7367 0.51984  6.043 14.075 26.525 23.590  0.0000  0.0000  0.0000
 1990 357    70    66   1830 19.1560  0.2263 10.1675  4.3982  1.7440 0.85941  6.173 14.417 23.764 20.936  0.0000  0.0000  0.0000
 1990 358    71    67   1968 24.1249  0.1976 13.9779  5.1536  1.6252 1.23707  6.413 14.977 21.715 18.207  0.0000  0.0000  0.0000
 1990 359    72    68   2135 26.7430  0.2313 16.4497  5.2728  1.8744 1.49569  6.648 15.568 22.583 18.717  0.0000  0.0000  0.0000
 1990 360    73    69   2329 31.0726  0.3391 19.1185  5.4114  3.0207 1.89835  6.907 16.215 28.400 22.673  0.0000  0.0000  0.0000
 1990 361    74    70   2435 20.0170  0.4096 11.1736  3.8149  2.6353 1.13548  7.004 16.437 28.983 23.757  0.0000  0.0000  0.0000
 1990 362    75    71   2581 24.3891  0.2480 13.9960  5.2005  1.5467 1.48511  7.167 16.867 20.155 16.217  0.0000  0.0000  0.0000
 1990 363    76    72   2726 24.2084  0.2465 13.8272  5.1087  1.5622 1.52164  7.322 17.273 21.687 15.386  0.0000  0.0000  0.0000
 1990 364    77    73   2935 32.4427  0.3766 20.2815  5.8205  2.5103 2.29470  7.549 17.836 24.375 18.861  0.0000  0.0000  0.0000
 1990 365    78    74   3143 34.1205  0.0000 19.8047  5.4998  3.3297 2.66155  7.919 18.735 25.779 21.912  0.0000  0.0000  0.0000
 1991 001    79    75   3332 32.4557  0.6883 19.0980  5.2087  4.2233 2.39911  8.080 19.104 29.380 24.975  0.0000  0.0000  0.0000
 1991 002    80    76   3479 27.7299  0.6957 15.1345  5.2259  3.5225 1.87689  8.172 19.302 27.310 23.264  0.0000  0.0000  0.0000
 1991 003    81    77   3706 37.2533  0.0000 20.1688  5.5919  3.8582 4.35688  8.767 20.828 26.697 22.078  0.0000  0.0000  0.0000
 1991 004    82    78   3920 35.7842  0.0000 19.5877  5.4750  3.8177 3.68466  9.209 21.912 27.031 21.695  0.0000  0.0000  0.0000
 1991 005    83    79   4151 38.3083  0.8165 22.6839  6.5460  3.8298 3.07049  9.349 22.210 25.426 21.164  0.0000  0.0000  0.0000
 1991 006    84    80   4381 38.3036  0.8707 22.7080  6.7400  3.9603 3.02229  9.470 22.459 26.133 21.082  0.0000  0.0000  0.0000
 1991 007    85    81   4586 38.8460  1.0825 20.8741  7.3186  4.7878 2.95232  9.562 22.633 26.473 23.428  0.0000  0.0000  0.0000
 1991 008    86    82   4787 38.9516  1.2248 20.8879  7.0181  5.4246 2.95608  9.648 22.780 27.931 24.779  0.0000  0.0000  0.0000
 1991 009    87    83   4926 27.9846  1.1819 15.6132  4.9815  4.2002 1.87444  9.674 22.774 24.214 23.175  0.0000  0.0000  0.0000
 1991 010    88    84   5119 37.7912  1.2232 20.3320  6.9587  5.0117 2.73206  9.754 22.910 26.955 23.336  0.0000  0.0000  0.0000
 1991 011    89    85   5326 38.5707  1.0339 20.9821  7.4349  3.9948 2.82917  9.856 23.113 23.119 20.217  0.0000  0.0000  0.0000
 1991 012    90    86   5514 35.3390  0.9760 19.4425  6.8944  3.5099 2.39227  9.935 23.262 21.891 18.916  0.0000  0.0000  0.0000
 1991 013    91    87   5662 30.8064  1.1857 17.5873  5.6227  3.8266 2.03098  9.988 23.314 23.083 20.359  0.0000  0.0000  0.0000
 1991 014    92    88   5808 33.8428  1.3739 18.0036  6.2947  4.8558 2.13403 10.028 23.343 27.854 22.119  6.2316 20.3232 32.2296
 1991 015    93    89   5966 36.0442  1.4861 18.8450  6.5322  5.7201 2.34521 10.074 23.387 30.407 23.489  6.2957 20.4436 31.7083
 1991 016    94    90   6090 28.3772  1.0563 15.5953  5.7686  2.9397 1.51962 10.108 23.403 21.331 16.886  6.2943 18.7655 33.3949
 1991 017    95    91   6266 35.9506  1.1275 19.1063  7.0488  3.5058 2.60567 10.196 23.574 23.572 17.120  6.2877 18.2278 33.9740
 1991 018    96    92   6458 39.9941  1.3561 21.7857  7.4333  4.2537 3.03390 10.303 23.769 24.889 18.760  6.2575 18.3799 34.0105
 1991 019    97    93   6629 39.1243  1.7961 20.8671  7.4784  5.6444 2.40996 10.334 23.776 27.358 22.484  6.2557 19.0331 33.3687
 1991 020    98    94   6779 37.9698  2.0846 19.6017  7.2716  6.8299 1.71895 10.303 23.624 29.530 25.122  6.3150 19.4414 32.5898
 1991 021    99    95   6901 34.3701  1.8376 17.9575  7.1957  5.0253 1.27444 10.270 23.463 25.463 21.413  6.2877 19.6046 32.5970
 1991 022   100    96   6954 24.1053  1.4417 13.2319  4.8216  4.3869 0.11261 10.208 23.214 26.141 20.729  6.2645 19.6607 32.6862
 1991 023   101    97   7071 39.2764  1.9908 18.9764  8.4087  6.2586 1.56815 10.183 23.081 29.076 22.984  6.2693 19.8464 32.4708
 1991 024   102    98   7123 23.0674  1.3272 12.5764  4.5241  4.5584 0.18811 10.142 22.879 26.136 21.263  6.2523 19.8984 32.5247
 1991 025   103    99   7214 38.1136  2.0730 20.0000  8.1910  5.8967 0.84157 10.063 22.608 26.910 22.503  6.2525 20.0085 32.4135
 1991 026   104   100   7347 39.1752  1.9760 19.8849  8.8018  5.5042 0.93235  9.998 22.375 26.141 21.304  6.2402 20.0255 32.4730
 1991 027   105   101   7478 38.6243  1.7575 20.0605  8.5934  4.6286 1.39874  9.982 22.275 24.997 18.763  6.2321 19.7886 32.7605
 1991 028   106   102   7628 38.0546  1.9793 19.6195  8.5303  5.3723 0.96994  9.920 22.054 26.515 20.604  6.2232 19.7906 32.8146
 1991 029   107   103   7613 28.0177  2.1815 15.3559  6.0178  5.3177 0.00000  9.780 21.617 25.206 22.125  6.2246 19.8773 32.7191
 1991 030   108   104   7636 27.3982  2.1423 14.3078  6.2128  5.2400 0.00000  9.638 21.178 24.900 22.070  6.2254 19.9566 32.6346
 1991 031   109   105   7680 29.0481  1.9696 15.1225  6.8641  4.7118 0.00000  9.510 20.770 23.729 20.470  6.2177 19.9195 32.7202
 1991 032   110   106   7782 38.2498  2.0341 19.1770  9.1416  5.7895 0.17316  9.387 20.378 26.872 21.428  6.2152 19.9511 32.7037
 1991 033   111   107   7857 36.5810  2.0817 18.3240  8.3302  6.5829 0.11405  9.255 19.961 29.848 22.829  6.2231 20.0172 32.5887
 1991 034   112   108   7874 34.3181  2.2169 16.8582  7.7081  7.5093 0.00000  9.100 19.484 31.479 25.070  6.2540 20.0792 32.3332
 1991 035   113   109   7951 35.1197  2.2199 16.9177  8.2029  7.3970 0.00000  8.941 18.997 30.022 25.010  6.2819 20.1365 32.1017
 1991 036   114   110   7987 32.3269  2.2138 15.8933  7.4015  7.4480 0.00000  8.781 18.506 30.416 25.404  6.3081 20.1814 31.8929
 1991 037   115   111   8031 31.3887  2.0564 15.5698  7.4878  6.3059 0.00000  8.633 18.042 28.067 23.199  6.3073 20.2191 31.8606
 1991 038   116   112   8085 32.7802  1.9825 16.3758  7.9596  6.3756 0.00000  8.489 17.587 28.632 22.942  6.3043 20.2475 31.8505
 1991 039   117   113   8148 32.0020  1.9509 16.0525  7.8989  6.1303 0.00000  8.345 17.132 27.469 22.638  6.2994 20.2677 31.8612
 1991 040   118   114   8162 25.5033  1.9841 13.0796  6.1725  6.0369 0.00000  8.196 16.661 26.979 23.437  6.3017 20.2934 31.8208
 1991 041   119   115   8227 32.4131  1.9764 15.6150  7.9018  7.4105 0.00000  8.046 16.180 30.013 25.076  6.3189 20.3151 31.6917
 1991 042   120   116   8279 31.2232  1.8869 15.1167  7.5647  7.2566 0.00000  7.899 15.712 30.601 24.664  6.3295 20.3330 31.6079
 1991 043   121   117   8351 28.8678  1.5485 15.1474  7.8255  4.4841 0.00000  7.781 15.321 24.211 18.811  6.3171 20.1881 31.8297
 1991 044   122   118   8423 26.1250  1.4333 13.9595  7.3337  3.8527 0.00000  7.670 14.954 22.647 17.355  6.3124 19.9651 32.0822
 1991 045   123   119   8492 25.6762  1.2030 13.5817  7.0523  4.1543 0.07663  7.598 14.671 23.835 18.044  6.3221 19.7841 32.2028
 1991 046   124   120   8554 25.0276  1.2448 13.1719  6.7605  4.4909 0.07058  7.518 14.369 25.178 18.780  6.3273 19.6775 32.2768
 1991 047   125   121   8635 29.5148  1.4146 15.0269  8.2786  4.5327 0.00000  7.396 13.985 24.992 18.167  6.3193 19.5726 32.4318
 1991 048   126   122   8707 28.4289  1.1796 13.9997  7.5261  5.5028 0.09125  7.318 13.696 27.957 20.347  6.3261 19.5462 32.4156
 1991 049   127   123   8786 28.9749  1.1462 13.9034  7.5572  5.8741 0.10682  7.242 13.416 28.353 21.245  6.3358 19.5416 32.3598
 1991 050   128   124   8866 27.9534  1.1422 13.6387  7.5126  5.3692 0.08193  7.154 13.121 28.041 19.970  6.3395 19.5116 32.3664
 1991 051   129   125   8929 25.9639  1.2824 11.9746  6.2531  6.8162 0.08034  7.042 12.778 30.626 23.984  6.3528 19.5339 32.2608
 1991 052   130   126   8947 15.4918  1.4571  8.0857  3.2398  5.1648 0.00016  6.879 12.343 27.845 21.990  6.3489 19.5575 32.2619
 1991 053   131   127   9018 25.2356  1.1432 11.9225  6.5797  5.4444 0.08039  6.769 12.028 27.056 21.488  6.3536 19.5605 32.2294
 1991 054   132   128   9091 23.0019  0.8943 11.2282  6.5525  3.9831 0.10129  6.689 11.794 24.504 17.653  6.3626 19.4625 32.2712
 1991 055   133   129   9157 21.0413  0.9244 10.4106  6.0446  3.6964 0.08240  6.596 11.539 23.605 17.256  6.3697 19.3681 32.3211
 1991 056   134   130   9216 22.9196  1.0985 10.1806  5.7417  5.8703 0.07668  6.470 11.222 29.745 22.577  6.3754 19.3836 32.2699
 1991 057   135   131   9258 20.6290  1.1002  8.3322  4.5062  7.3106 0.08219  6.336 10.901 33.843 26.000  6.3821 19.4091 32.2028
 1991 058   136   132   9290 19.2304  1.0879  7.2636  3.7885  7.9345 0.08827  6.199 10.581 34.798 27.812  6.3900 19.4328 32.1294
 1991 059   137   133   9282  9.4858  1.3332  4.3692  1.3819  5.1273 0.00000  5.999 10.138 26.893 23.864  6.3896 19.4472 32.1177
 1991 060   138   134   9006 16.8882  1.2019  7.9072  3.0817  5.1029 0.00000  5.739  9.222 27.807 22.286  6.3347 19.5749 32.3332
 1991 061   139   135   8760  9.6085  0.9807  4.2911  1.6841  4.1582 0.00000  5.494  8.433 27.058 21.218  6.3301 19.5868 32.3499
 1991 062   140   136   8574 12.3493  0.8918  4.6059  1.9884  5.7204 0.00103  5.240  7.720 32.197 25.326  6.3235 19.6171 32.3608
 1991 063   141   137   8423  8.7984  0.6917  3.8030  1.8271  3.4571 0.00000  5.019  7.131 25.654 19.853  6.3219 19.6148 32.3732
 1991 064   142   138   8301  6.9290  0.5702  2.9923  1.3974  2.9088 0.00000  4.818  6.631 25.201 17.943  6.3211 19.6013 32.3919
 1991 065   143   139   8196  5.7138  0.5422  2.0755  0.7305  3.4265 0.00000  4.609  6.174 27.392 20.599  6.3203 19.6024 32.3959
 1991 066   144   140   8096  4.0359  0.5476  0.0000  0.0000  4.8876 0.00000  4.365  5.738 31.949 26.439  6.3203 19.6024 32.3959
 1991 067   145   141   8013  2.7760  0.4925  0.0000  0.0000  4.4213 0.00000  4.133  5.350 30.047 25.676  6.3203 19.6024 32.3959
 1991 068   146   142   7940  1.9535  0.4451  0.0000  0.0000  4.0584 0.00000  3.914  5.005 28.438 24.956  6.3203 19.6024 32.3959
 1991 069   147   143   7874  1.3331  0.3609  0.0000  0.0000  2.7380 0.00000  3.730  4.721 23.375 20.215  6.3203 19.6024 32.3959
 1991 070   148   144   7827  1.7593  0.3509  0.0000  0.0000  3.2538 0.00000  3.545  4.453 26.982 22.083  6.3203 19.6024 32.3959
 1991 071   149   145   7789  1.1034  0.2993  0.0000  0.0000  2.3673 0.00000  3.384  4.226 19.964 19.006  6.3203 19.6024 32.3959

*DSSAT Cropping System Model Ver. 4.6.1.000 -release      OCT 17, 2016; 11:24:59
                                                                                
*RUN   2        : UYSB                      CRGRO046 UYSB0874    1              
 MODEL          : CRGRO046 - Soybean                                            
 EXPERIMENT     : UYSB0874 SN late to create DSS                                
 DATA PATH      :                                                               
 TREATMENT  1   : UYSB                      CRGRO046                            
  
@YEAR DOY   DAS   DAP   TWAD    PHAD    CMAD    CGRD    GRAD    MRAD    CHAD   CL%D   CS%D   TGNN   TGAV    GN%D    GL%D    GC%D
 1991 291     4     0      0  0.0000  0.0000  0.0000  0.0000  0.0000 0.00000  0.000  0.000 19.903 14.944  0.0000  0.0000  0.0000
 1991 292     5     1      0  0.0000  0.0000  0.0000  0.0000  0.0000 0.00000  0.000  0.000 23.785 17.575  0.0000  0.0000  0.0000
 1991 293     6     2      0  0.0000  0.0000  0.0000  0.0000  0.0000 0.00000  0.000  0.000 21.703 18.133  0.0000  0.0000  0.0000
 1991 294     7     3      0  0.0000  0.0000  0.0000  0.0000  0.0000 0.00000  0.000  0.000 28.693 23.408  0.0000  0.0000  0.0000
 1991 295     8     4      0  0.0000  0.0000  0.0000  0.0000  0.0000 0.00000  0.000  0.000 22.738 20.667  0.0000  0.0000  0.0000
 1991 296     9     5      0  0.0000  0.0000  0.0000  0.0000  0.0000 0.00000  0.000  0.000 17.645 14.859  0.0000  0.0000  0.0000
 1991 297    10     6      0  0.0000  0.0000  0.0000  0.0000  0.0000 0.00000  0.000  0.000 17.520 14.661  0.0000  0.0000  0.0000
 1991 298    11     7      8  0.0000  0.0005  0.0003  0.0001  0.0000 0.00000  3.948  7.892 21.342 18.769  0.0000  0.0000  0.0000
 1991 299    12     8      8  0.1107  0.0004  0.0698  0.0239  0.0071 0.00000  3.906  7.811 21.184 18.217  0.0000  0.0000  0.0000
 1991 300    13     9      9  0.1518  0.0004  0.0969  0.0322  0.0084 0.00000  3.872  7.753 20.742 17.418  0.0000  0.0000  0.0000
 1991 301    14    10     10  0.1785  0.0005  0.1147  0.0367  0.0102 0.00000  3.839  7.702 21.403 17.971  0.0000  0.0000  0.0000
 1991 302    15    11     11  0.0702  0.0005  0.0434  0.0152  0.0052 0.00000  3.808  7.637 16.825 16.145  0.0000  0.0000  0.0000
 1991 303    16    12     11  0.0907  0.0005  0.0569  0.0194  0.0067 0.00000  3.774  7.574 18.879 17.341  0.0000  0.0000  0.0000
 1991 304    17    13     12  0.1820  0.0005  0.1178  0.0377  0.0098 0.00000  3.750  7.551 19.506 16.787  0.0000  0.0000  0.0000
 1991 305    18    14     13  0.1264  0.0006  0.0810  0.0255  0.0080 0.00000  3.722  7.510 19.223 16.540  0.0000  0.0000  0.0000
 1991 306    19    15     15  0.2418  0.0006  0.1578  0.0476  0.0129 0.00000  3.701  7.505 20.512 17.041  0.0000  0.0000  0.0000
 1991 307    20    16     16  0.2905  0.0008  0.1897  0.0554  0.0173 0.00000  3.674  7.496 21.859 18.495  0.0000  0.0000  0.0000
 1991 308    21    17     18  0.2898  0.0009  0.1886  0.0543  0.0194 0.00000  3.643  7.473 22.549 19.399  0.0000  0.0000  0.0000
 1991 309    22    18     20  0.3465  0.0011  0.2258  0.0648  0.0236 0.00000  3.613  7.456 23.240 19.803  0.0000  0.0000  0.0000
 1991 310    23    19     22  0.2290  0.0013  0.1370  0.0514  0.0197 0.00000  3.601  7.377 22.839 20.405  0.0000  0.0000  0.0000
 1991 311    24    20     24  0.3253  0.0011  0.2004  0.0755  0.0196 0.00000  3.610  7.344 20.214 17.708  0.0000  0.0000  0.0000
 1991 312    25    21     26  0.4188  0.0011  0.2621  0.0944  0.0237 0.00000  3.619  7.336 21.154 17.465  0.0000  0.0000  0.0000
 1991 313    26    22     29  0.4284  0.0011  0.2712  0.0948  0.0224 0.00000  3.624  7.342 21.300 15.928  0.0000  0.0000  0.0000
 1991 314    27    23     32  0.5346  0.0014  0.3385  0.1138  0.0327 0.00000  3.620  7.351 23.882 17.937  0.0000  0.0000  0.0000
 1991 315    28    24     34  0.3758  0.0011  0.2377  0.0849  0.0192 0.00000  3.619  7.344 18.408 14.826  0.0000  0.0000  0.0000
 1991 316    29    25     37  0.4674  0.0011  0.2961  0.1078  0.0210 0.00000  3.628  7.354 18.915 13.792  0.0000  0.0000  0.0000
 1991 317    30    26     41  0.5597  0.0013  0.3501  0.1318  0.0257 0.00000  3.641  7.358 19.317 14.445  0.0000  0.0000  0.0000
 1991 318    31    27     44  0.5378  0.0018  0.3355  0.1213  0.0316 0.00000  3.636  7.344 20.798 16.642  0.0000  0.0000  0.0000
 1991 319    32    28     47  0.4647  0.0020  0.2884  0.1041  0.0307 0.00000  3.622  7.317 19.781 17.129  0.0000  0.0000  0.0000
 1991 320    33    29     52  0.8968  0.0020  0.5719  0.1971  0.0466 0.00000  3.623  7.354 21.884 16.366  0.0000  0.0000  0.0000
 1991 321    34    30     58  1.0135  0.0026  0.6455  0.2191  0.0594 0.00000  3.616  7.378 22.882 17.865  0.0000  0.0000  0.0000
 1991 322    35    31     65  1.1236  0.0032  0.7150  0.2383  0.0730 0.00000  3.603  7.393 24.849 18.685  0.0000  0.0000  0.0000
 1991 323    36    32     71  0.9795  0.0033  0.6139  0.2217  0.0595 0.00000  3.599  7.379 20.945 17.648  0.0000  0.0000  0.0000
 1991 324    37    33     80  1.4208  0.0043  0.8866  0.3181  0.0970 0.00000  3.595  7.378 24.372 19.821  0.0000  0.0000  0.0000
 1991 325    38    34     90  1.6730  0.0052  1.0374  0.3695  0.1272 0.00000  3.589  7.374 26.947 20.997  0.0000  0.0000  0.0000
 1991 326    39    35    100  1.7787  0.0069  1.0798  0.3792  0.1765 0.00000  3.568  7.350 30.397 24.304  0.0000  0.0000  0.0000
 1991 327    40    36    113  2.1173  0.0078  1.2933  0.4460  0.2061 0.00000  3.549  7.341 30.402 24.309  0.0000  0.0000  0.0000
 1991 328    41    37    117  0.6545  0.0041  0.3926  0.1648  0.0448 0.00000  3.547  7.300 15.741 14.523  0.0000  0.0000  0.0000
 1991 329    42    38    121  0.9625  0.0056  0.5933  0.2206  0.0704 0.00000  3.533  7.265 19.252 16.994  0.0000  0.0000  0.0000
 1991 330    43    39    132  1.9266  0.0075  1.2023  0.4122  0.1466 0.00000  3.519  7.265 25.664 19.965  0.0000  0.0000  0.0000
 1991 331    44    40    146  2.4229  0.0068  1.5741  0.4972  0.1439 0.00000  3.540  7.298 22.823 17.804  0.0000  0.0000  0.0000
 1991 332    45    41    165  3.1123  0.0102  1.9380  0.6444  0.2371 0.00000  3.526  7.314 26.120 21.353  0.0000  0.0000  0.0000
 1991 333    46    42    173  1.4912  0.0099  0.8952  0.3407  0.1270 0.00000  3.515  7.256 20.652 19.183  0.0000  0.0000  0.0000
 1991 334    47    43    196  3.7065  0.0111  2.4945  0.7624  0.2550 0.00000  3.573  7.259 24.779 20.156  0.0000  0.0000  0.0000
 1991 335    48    44    219  4.3402  0.0136  2.2999  1.0798  0.3268 0.00000  3.541  7.243 26.736 21.182  0.0000  0.0000  0.0000
 1991 336    49    45    249  5.0927  0.0155  2.9983  1.1653  0.3783 0.00000  3.549  7.240 26.058 21.364  0.0000  0.0000  0.0000
 1991 337    50    46    271  3.6996  0.0155  2.2221  0.8355  0.2683 0.00000  3.544  7.214 23.159 19.540  0.0000  0.0000  0.0000
 1991 338    51    47    310  6.7637  0.0213  4.0622  1.5285  0.5444 0.00000  3.557  7.215 26.387 22.841  0.0000  0.0000  0.0000
 1991 339    52    48    339  5.0660  0.0228  3.0489  1.1434  0.4225 0.00000  3.548  7.184 24.982 21.686  0.0000  0.0000  0.0000
 1991 340    53    49    392  9.0816  0.0278  5.4085  2.0135  0.8332 0.00000  3.559  7.194 30.257 24.455  0.0000  0.0000  0.0000
 1991 341    54    50    442  8.4114  0.0263  5.1167  1.8884  0.5722 0.02434  3.609  7.335 23.437 20.286  0.0000  0.0000  0.0000
 1991 342    55    51    507 10.9272  0.0304  6.6080  2.4337  0.7505 0.06157  3.707  7.619 26.088 20.358  0.0000  0.0000  0.0000
 1991 343    56    52    543  6.3347  0.0442  3.6830  1.3857  0.6558 0.05528  3.741  7.752 25.054 23.299  0.0000  0.0000  0.0000
 1991 344    57    53    614 12.3532  0.0473  7.4310  2.6942  1.0304 0.15329  3.925  8.226 25.799 23.078  0.0000  0.0000  0.0000
 1991 345    58    54    690 13.3219  0.0583  7.4640  3.0474  1.1784 0.19748  4.070  8.700 26.681 23.638  0.0000  0.0000  0.0000
 1991 346    59    55    739  8.5000  0.0517  4.8379  1.9354  0.6736 0.15026  4.153  8.983 24.117 19.534  0.0000  0.0000  0.0000
 1991 347    60    56    849 18.6731  0.0617 10.8638  4.1767  1.3093 0.39028  4.406  9.719 26.471 20.671  0.0000  0.0000  0.0000
 1991 348    61    57    901  9.6548  0.0792  5.3546  2.1806  0.8834 0.22051  4.499  9.986 23.681 21.175  0.0000  0.0000  0.0000
 1991 349    62    58    982 14.4891  0.0950  8.1609  3.2729  1.3008 0.38360  4.676 10.472 25.242 22.628  0.0000  0.0000  0.0000
 1991 350    63    59   1101 19.0170  0.1082 12.3234  3.6058  1.6200 0.64551  4.986 11.233 26.053 22.653  0.0000  0.0000  0.0000
 1991 351    64    60   1242 23.8935  0.1304 13.8480  5.0330  2.0288 0.81195  5.264 12.001 27.360 22.886  0.0000  0.0000  0.0000
 1991 352    65    61   1369 24.1453  0.1488 11.5878  5.8932  2.0969 0.74405  5.395 12.525 28.410 22.432  0.0000  0.0000  0.0000
 1991 353    66    62   1488 24.1328  0.1997 12.2155  5.4617  2.6937 0.86091  5.612 13.056 30.678 25.702  0.0000  0.0000  0.0000
 1991 354    67    63   1635 28.0350  0.2242 14.8230  6.2540  2.9702 1.15674  5.872 13.713 30.056 25.296  0.0000  0.0000  0.0000
 1991 355    68    64   1781 28.3175  0.2823 14.6805  6.0746  3.4530 1.24904  6.093 14.290 30.837 27.114  0.0000  0.0000  0.0000
 1991 356    69    65   1851 15.5166  0.2877  7.6590  3.5054  1.9826 0.67732  6.169 14.472 25.731 23.906  0.0000  0.0000  0.0000
 1991 357    70    66   2022 31.5216  0.3116 17.5215  6.3780  3.3400 1.68168  6.490 15.210 29.079 24.927  0.0000  0.0000  0.0000
 1991 358    71    67   2198 32.1763  0.3668 16.5604  6.9775  3.5437 1.67752  6.665 15.771 28.862 25.211  0.0000  0.0000  0.0000
 1991 359    72    68   2355 29.2379  0.3407 15.4901  6.4280  2.6124 1.60874  6.867 16.282 24.819 21.598  0.0000  0.0000  0.0000
 1991 360    73    69   2487 24.5450  0.3060 13.4999  5.3146  1.9106 1.41159  7.051 16.701 21.442 18.829  0.0000  0.0000  0.0000
 1991 361    74    70   2654 28.9763  0.3588 17.0989  5.6093  2.3933 1.87314  7.302 17.248 24.185 19.782  0.0000  0.0000  0.0000
 1991 362    75    71   2849 31.7484  0.0000 17.9880  5.1570  2.8321 3.01473  7.826 18.585 24.929 20.919  0.0000  0.0000  0.0000
 1991 363    76    72   3069 34.8490  0.0000 17.9898  4.9089  3.2554 5.62358  8.847 21.301 25.970 21.531  0.0000  0.0000  0.0000
 1991 364    77    73   3287 35.1490  0.0000 17.2493  4.5996  3.9528 6.30492  9.910 24.058 28.264 23.538  0.0000  0.0000  0.0000
 1991 365    78    74   3454 30.2841  0.9216 17.4195  4.9219  4.1750 2.19991  9.955 24.055 28.979 25.112  0.0000  0.0000  0.0000
 1992 001    79    75   3541 17.7462  0.8219 10.3690  3.1988  2.6166 0.98627  9.934 23.905 23.152 21.935  0.0000  0.0000  0.0000
 1992 002    80    76   3703 30.5022  0.9894 17.2085  5.4095  4.4336 2.03425  9.966 23.880 29.410 25.364  0.0000  0.0000  0.0000
 1992 003    81    77   3859 28.0277  0.7688 16.2238  5.0048  2.8880 1.86779 10.025 23.950 23.118 20.181  0.0000  0.0000  0.0000
 1992 004    82    78   4092 38.4478  0.0000 19.2074  5.8650  3.6347 5.85617 10.789 25.864 25.109 20.525  0.0000  0.0000  0.0000
 1992 005    83    79   4329 38.4576  0.0000 18.4752  5.6493  3.5298 6.82928 11.645 28.005 25.551 19.462  0.0000  0.0000  0.0000
 1992 006    84    80   4475 27.8565  1.0710 15.7334  5.2800  3.3300 1.77276 11.630 27.866 25.131 20.618  0.0000  0.0000  0.0000
 1992 007    85    81   4666 35.3812  1.0755 19.8433  6.1995  4.2298 2.48130 11.676 27.867 26.262 22.106  0.0000  0.0000  0.0000
 1992 008    86    82   4838 35.0330  1.4517 18.8005  6.5000  5.1491 2.24981 11.662 27.719 28.099 24.588  0.0000  0.0000  0.0000
 1992 009    87    83   4996 32.9126  1.5146 17.7641  5.9313  5.5036 2.00907 11.638 27.554 29.951 25.508  0.0000  0.0000  0.0000
 1992 010    88    84   5149 33.4543  1.4265 17.7717  6.3557  4.7908 1.91571 11.630 27.427 28.342 23.075  0.0000  0.0000  0.0000
 1992 011    89    85   5348 39.7903  1.2693 22.5711  7.0308  4.1889 2.82633 11.704 27.498 25.159 20.214  0.0000  0.0000  0.0000
 1992 012    90    86   5526 37.9260  1.3561 20.7393  7.1207  4.2221 2.51113 11.746 27.494 25.329 20.312  6.1780 19.6590 33.2284
 1992 013    91    87   5693 37.5261  1.5339 20.0332  7.3256  4.6681 2.20404 11.756 27.420 26.353 21.406  6.1931 19.9619 32.8311
 1992 014    92    88   5825 34.9028  1.6079 18.2368  7.2252  4.6989 1.61570 11.719 27.257 26.975 21.562  6.1996 20.0627 32.6895
 1992 015    93    89   5956 28.9129  1.0763 15.2571  6.5136  2.5392 1.09485 11.723 27.172 19.522 15.579  6.2817 18.3280 33.9114
 1992 016    94    90   6102 33.0146  1.2058 18.3216  6.6862  3.1208 2.08901 11.773 27.200 22.658 16.421  6.2947 17.8552 34.3029
 1992 017    95    91   6290 39.3846  1.6214 22.1166  7.4757  4.5673 2.32588 11.804 27.187 25.934 19.912  6.2605 18.3161 34.0555
 1992 018    96    92   6431 37.6841  1.9074 20.1782  7.5074  5.4747 1.84432 11.780 27.038 28.038 22.303  6.2557 18.8376 33.5644
 1992 019    97    93   6565 38.2649  1.9952 19.6125  7.8480  6.1441 1.49870 11.731 26.830 30.199 23.318  6.2686 19.2262 33.0952
 1992 020    98    94   6663 37.0925  2.1159 18.4169  7.7949  6.3768 1.25719 11.660 26.569 30.238 24.002  6.2906 19.5041 32.6794
 1992 021    99    95   6751 38.5954  2.2735 18.9913  8.2289  6.7344 1.21731 11.573 26.270 29.286 24.770  6.3231 19.7242 32.2562
 1992 022   100    96   6857 38.7532  2.2876 19.2904  8.5075  6.6226 0.94350 11.467 25.926 28.618 24.461  6.3421 19.8928 31.9692
 1992 023   101    97   6946 37.8612  2.2602 18.9136  8.4383  6.4172 0.59040 11.341 25.534 28.478 23.962  6.3468 20.0123 31.8200
 1992 024   102    98   6948 26.8326  2.2784 14.3554  5.9079  5.5122 0.00000 11.177 25.038 26.504 23.637  6.3451 20.1050 31.7384
 1992 025   103    99   7023 30.9872  2.4269 15.2821  7.0229  6.7113 0.00000 10.995 24.496 28.383 25.732  6.3783 20.1789 31.4568
 1992 026   104   100   7030 30.0284  2.4126 15.0742  6.6157  6.7713 0.00000 10.815 23.952 28.784 25.882  6.4038 20.2309 31.2452
 1992 027   105   101   7066 32.7870  2.3414 15.9085  7.4869  6.9959 0.00000 10.637 23.414 29.419 25.836  6.4247 20.2747 31.0708
 1992 028   106   102   7104 32.5587  2.3255 15.7073  7.3544  7.0838 0.00000 10.459 22.870 29.399 26.031  6.4442 20.3100 30.9137
 1992 029   107   103   7146 30.8744  2.2037 15.2835  7.1930  6.2943 0.00000 10.290 22.346 27.837 24.577  6.4406 20.3389 30.9073
 1992 030   108   104   7104 20.1035  2.2483 10.4705  4.4874  5.8959 0.00000 10.115 21.802 27.709 25.417  6.4484 20.3619 30.8359
 1992 031   109   105   7108 23.3227  2.2669 11.3672  5.3107  6.8177 0.00000  9.938 21.239 29.451 27.015  6.4745 20.3811 30.6536
 1992 032   110   106   7084 18.8920  2.2111  9.6006  4.1113  6.4890 0.00000  9.766 20.678 29.534 27.063  6.4961 20.3966 30.5027
 1992 033   111   107   7083 18.2584  1.9564  9.8984  4.0965  5.4298 0.02127  9.628 20.181 25.793 24.754  6.4987 20.3888 30.4945
 1992 034   112   108   7072 16.7369  1.8168  9.4588  3.6771  4.8082 0.01865  9.504 19.709 24.966 23.355  6.4869 20.3838 30.5732
 1992 035   113   109   7067 16.5133  1.7577  9.4952  3.6176  4.5576 0.00948  9.380 19.239 24.494 22.704  6.4692 20.3810 30.6864
 1992 036   114   110   7139 32.6091  1.9338 15.3432  8.0412  7.1832 0.00000  9.229 18.699 29.367 26.253  6.4862 20.3842 30.5770
 1992 037   115   111   7191 28.5515  1.6447 13.7595  6.9248  6.7317 0.07051  9.120 18.262 28.963 25.849  6.5123 20.3536 30.4443
 1992 038   116   112   7261 30.7006  1.4091 14.6839  7.9343  6.1208 0.09936  9.040 17.896 28.074 23.994  6.5239 20.3142 30.4116
 1992 039   117   113   7320 27.5328  1.5835 13.0016  6.9723  6.9357 0.07136  8.924 17.454 29.227 26.293  6.5454 20.2941 30.2973
 1992 040   118   114   7375 26.2071  1.5540 11.9987  6.3904  7.4263 0.06857  8.802 17.008 31.506 27.284  6.5692 20.2770 30.1653
 1992 041   119   115   7388 13.7159  1.5495  7.7242  2.8799  4.3908 0.00000  8.653 16.523 23.368 22.295  6.5546 20.2807 30.2531
 1992 042   120   116   7413 17.0114  1.3213  9.0176  4.1745  4.0735 0.03631  8.533 16.117 22.379 20.841  6.5438 20.2467 30.3547
 1992 043   121   117   7502 28.9153  1.1118 13.6885  7.8936  5.0840 0.10694  8.454 15.804 25.208 21.775  6.5413 20.2037 30.4135
 1992 044   122   118   7530 15.9661  1.4825  8.1086  3.3025  4.9800 0.01269  8.288 15.314 26.720 23.573  6.5353 20.2106 30.4440
 1992 045   123   119   7540 14.2042  1.3998  7.2488  2.9607  4.6487 0.02040  8.126 14.846 25.041 23.182  6.5308 20.2126 30.4700
 1992 046   124   120   7605 23.9949  1.1457 11.0214  6.1058  5.2625 0.08526  8.009 14.487 27.003 23.107  6.5334 20.1961 30.4700
 1992 047   125   121   7660 22.7285  1.3094 10.1517  5.2699  6.0897 0.04939  7.847 14.045 29.227 25.403  6.5397 20.1929 30.4342
 1992 048   126   122   7718 24.1614  1.2658 10.3119  5.8024  6.7466 0.06014  7.685 13.615 30.803 26.695  6.5518 20.1868 30.3642
 1992 049   127   123   7774 23.7174  1.2522  9.9022  5.9685  6.9268 0.05614  7.514 13.179 31.453 27.238  6.5642 20.1820 30.2916
 1992 050   128   124   7819 21.3915  1.2747  8.6745  5.1430  7.0963 0.04124  7.324 12.719 32.613 28.077  6.5757 20.1803 30.2218
 1992 051   129   125   7866 21.9056  1.2159  8.6447  5.3010  7.2703 0.05280  7.138 12.280 32.389 28.533  6.5892 20.1755 30.1419
 1992 052   130   126   7873 10.6648  1.1958  4.9817  2.2670  4.0646 0.00000  6.931 11.815 26.884 22.314  6.5829 20.1789 30.1778
 1992 053   131   127   7860  7.4016  1.0360  3.8709  1.6610  2.7122 0.00000  6.745 11.407 20.474 18.511  6.5776 20.1557 30.2340
 1992 054   132   128   7917 18.8780  0.8935  8.4712  5.2200  3.7953 0.05397  6.596 11.076 24.116 20.370  6.5729 20.1274 30.2919
 1992 055   133   129   7968 17.4861  1.0498  8.0934  3.8152  3.8952 0.00000  6.394 10.651 25.168 20.852  6.5198 20.2090 30.5422
 1992 056   134   130   7760 15.5939  0.9201  7.8106  3.1807  3.0119 0.00000  6.146  9.786 23.181 17.974  6.4499 20.2824 30.9056
 1992 057   135   131   7592 13.6349  0.8172  6.2701  3.1406  3.2594 0.00000  5.893  9.009 24.857 19.616  6.4100 20.3330 31.1047
 1992 058   136   132   7436  7.2655  0.6626  3.2841  1.7359  2.4628 0.00000  5.660  8.347 23.010 17.913  6.4060 20.3129 31.1497
 1992 059   137   133   7314  6.4397  0.5324  3.0301  1.7542  1.8874 0.00000  5.451  7.790 20.478 15.561  6.4061 20.2673 31.1948
 1992 060   138   134   7215  5.7735  0.4900  2.5057  1.3683  2.1210 0.00000  5.238  7.288 22.822 16.873  6.4052 20.2419 31.2258
 1992 061   139   135   7130  4.7476  0.4727  1.7460  0.7920  2.5421 0.00000  5.016  6.821 25.205 19.472  6.4039 20.2361 31.2393
 1992 062   140   136   7054  3.7548  0.4571  0.9947  0.2853  2.9648 0.00000  4.782  6.385 26.364 22.163  6.4034 20.2364 31.2422
 1992 063   141   137   6987  1.8171  0.4160  0.0000  0.0000  2.8402 0.00000  4.544  5.992 25.213 22.508  6.4034 20.2364 31.2422
 1992 064   142   138   6931  2.0738  0.3960  0.0000  0.0000  3.2271 0.00000  4.307  5.627 27.336 24.240  6.4034 20.2364 31.2422
 1992 065   143   139   6885  0.8567  0.3381  0.0000  0.0000  2.5122 0.00000  4.097  5.313 23.397 21.583  6.4034 20.2364 31.2422
 1992 066   144   140   6846  1.3187  0.3324  0.0000  0.0000  3.0668 0.00000  3.884  5.013 27.451 23.966  6.4034 20.2364 31.2422
 1992 067   145   141   6810  1.1567  0.3136  0.0000  0.0000  3.2119 0.00000  3.678  4.734 28.108 24.767  6.4034 20.2364 31.2422

*DSSAT Cropping System Model Ver. 4.6.1.000 -release      OCT 17, 2016; 11:24:59
                                                                                
*RUN   3        : UYSB                      CRGRO046 UYSB0874    1              
 MODEL          : CRGRO046 - Soybean                                            
 EXPERIMENT     : UYSB0874 SN late to create DSS                                
 DATA PATH      :                                                               
 TREATMENT  1   : UYSB                      CRGRO046                            
  
@YEAR DOY   DAS   DAP   TWAD    PHAD    CMAD    CGRD    GRAD    MRAD    CHAD   CL%D   CS%D   TGNN   TGAV    GN%D    GL%D    GC%D
 1992 291     4     0      0  0.0000  0.0000  0.0000  0.0000  0.0000 0.00000  0.000  0.000 21.635 17.461  0.0000  0.0000  0.0000
 1992 292     5     1      0  0.0000  0.0000  0.0000  0.0000  0.0000 0.00000  0.000  0.000 17.832 13.156  0.0000  0.0000  0.0000
 1992 293     6     2      0  0.0000  0.0000  0.0000  0.0000  0.0000 0.00000  0.000  0.000 19.384 14.101  0.0000  0.0000  0.0000
 1992 294     7     3      0  0.0000  0.0000  0.0000  0.0000  0.0000 0.00000  0.000  0.000 16.916 12.167  0.0000  0.0000  0.0000
 1992 295     8     4      0  0.0000  0.0000  0.0000  0.0000  0.0000 0.00000  0.000  0.000 19.636 12.993  0.0000  0.0000  0.0000
 1992 296     9     5      0  0.0000  0.0000  0.0000  0.0000  0.0000 0.00000  0.000  0.000 22.261 15.652  0.0000  0.0000  0.0000
 1992 297    10     6      0  0.0000  0.0000  0.0000  0.0000  0.0000 0.00000  0.000  0.000 25.867 19.007  0.0000  0.0000  0.0000
 1992 298    11     7      8  0.0000  0.0005  0.0003  0.0001  0.0000 0.00000  3.940  7.875 28.360 21.213  0.0000  0.0000  0.0000
 1992 299    12     8      9  0.1589  0.0006  0.0987  0.0339  0.0127 0.00000  3.887  7.776 26.793 21.896  0.0000  0.0000  0.0000
 1992 300    13     9     10  0.2018  0.0007  0.1256  0.0420  0.0174 0.00000  3.832  7.687 27.069 23.566  0.0000  0.0000  0.0000
 1992 301    14    10     11  0.2296  0.0007  0.1453  0.0484  0.0174 0.00000  3.792  7.635 27.554 21.297  0.0000  0.0000  0.0000
 1992 302    15    11     11  0.0316  0.0001  0.0195  0.0077  0.0018 0.00000  3.787  7.620 11.698  8.980  0.0000  0.0000  0.0000
 1992 303    16    12     12  0.1498  0.0003  0.0982  0.0326  0.0058 0.00000  3.777  7.614 17.845 12.015  0.0000  0.0000  0.0000
 1992 304    17    13     13  0.1881  0.0004  0.1232  0.0395  0.0085 0.00000  3.762  7.602 19.483 14.224  0.0000  0.0000  0.0000
 1992 305    18    14     15  0.2155  0.0005  0.1416  0.0438  0.0103 0.00000  3.745  7.592 21.130 14.475  0.0000  0.0000  0.0000
 1992 306    19    15     17  0.3050  0.0008  0.1974  0.0599  0.0201 0.00000  3.715  7.565 25.311 19.084  0.0000  0.0000  0.0000
 1992 307    20    16     19  0.2912  0.0011  0.1861  0.0561  0.0232 0.00000  3.679  7.517 26.961 20.842  0.0000  0.0000  0.0000
 1992 308    21    17     20  0.2200  0.0007  0.1443  0.0453  0.0113 0.00000  3.663  7.500 19.151 14.749  0.0000  0.0000  0.0000
 1992 309    22    18     20  0.0984  0.0003  0.0641  0.0209  0.0044 0.00000  3.660  7.492 13.255  9.603  0.0000  0.0000  0.0000
 1992 310    23    19     21  0.1141  0.0003  0.0748  0.0238  0.0048 0.00000  3.656  7.486 14.093  9.260  0.0000  0.0000  0.0000
 1992 311    24    20     22  0.2035  0.0006  0.1342  0.0404  0.0099 0.00000  3.645  7.476 18.387 13.016  0.0000  0.0000  0.0000
 1992 312    25    21     24  0.2572  0.0007  0.1586  0.0609  0.0127 0.00000  3.658  7.448 19.842 13.576  0.0000  0.0000  0.0000
 1992 313    26    22     26  0.3420  0.0009  0.2121  0.0791  0.0184 0.00000  3.667  7.425 22.084 15.136  0.0000  0.0000  0.0000
 1992 314    27    23     29  0.4925  0.0014  0.3048  0.1100  0.0329 0.00000  3.666  7.398 25.301 18.890  0.0000  0.0000  0.0000
 1992 315    28    24     31  0.2851  0.0017  0.1745  0.0618  0.0246 0.00000  3.638  7.336 22.023 19.766  0.0000  0.0000  0.0000
 1992 316    29    25     34  0.5638  0.0023  0.3457  0.1186  0.0515 0.00000  3.611  7.303 26.434 23.425  0.0000  0.0000  0.0000
 1992 317    30    26     38  0.6934  0.0022  0.4307  0.1525  0.0535 0.00000  3.601  7.304 26.086 21.393  0.0000  0.0000  0.0000
 1992 318    31    27     43  0.7680  0.0021  0.4777  0.1760  0.0504 0.00000  3.606  7.312 24.615 19.205  0.0000  0.0000  0.0000
 1992 319    32    28     47  0.7858  0.0030  0.4820  0.1730  0.0674 0.00000  3.588  7.294 26.254 22.492  0.0000  0.0000  0.0000
 1992 320    33    29     53  0.9803  0.0027  0.6195  0.2140  0.0646 0.00000  3.583  7.323 24.273 19.507  0.0000  0.0000  0.0000
 1992 321    34    30     58  0.8053  0.0018  0.5150  0.1830  0.0364 0.00000  3.591  7.347 18.756 14.456  0.0000  0.0000  0.0000
 1992 322    35    31     63  0.6988  0.0015  0.4487  0.1596  0.0280 0.00000  3.599  7.366 16.832 12.460  0.0000  0.0000  0.0000
 1992 323    36    32     70  1.1128  0.0029  0.7107  0.2434  0.0614 0.00000  3.597  7.384 21.891 16.874  0.0000  0.0000  0.0000
 1992 324    37    33     78  1.4635  0.0042  0.9035  0.3312  0.1036 0.00000  3.603  7.380 26.701 19.856  0.0000  0.0000  0.0000
 1992 325    38    34     87  1.4780  0.0051  0.9140  0.3280  0.1139 0.00000  3.593  7.365 26.337 20.889  0.0000  0.0000  0.0000
 1992 326    39    35     92  0.7573  0.0046  0.4670  0.1698  0.0598 0.00000  3.572  7.320 20.552 18.043  0.0000  0.0000  0.0000
 1992 327    40    36    100  1.2600  0.0030  0.8052  0.2891  0.0564 0.00000  3.579  7.342 18.556 13.933  0.0000  0.0000  0.0000
 1992 328    41    37    108  1.3673  0.0031  0.8825  0.3044  0.0611 0.00000  3.582  7.368 19.924 13.078  0.0000  0.0000  0.0000
 1992 329    42    38    120  1.9330  0.0056  1.2334  0.4190  0.1153 0.00000  3.574  7.382 22.537 17.841  0.0000  0.0000  0.0000
 1992 330    43    39    126  1.0371  0.0068  0.6376  0.2294  0.0875 0.00000  3.551  7.330 21.113 18.748  0.0000  0.0000  0.0000
 1992 331    44    40    138  2.0531  0.0076  1.2916  0.4457  0.1429 0.00000  3.539  7.327 23.192 19.428  0.0000  0.0000  0.0000
 1992 332    45    41    154  2.5077  0.0074  1.5914  0.5512  0.1499 0.00000  3.539  7.343 22.500 17.948  0.0000  0.0000  0.0000
 1992 333    46    42    171  2.8988  0.0102  1.8214  0.6176  0.2156 0.00000  3.527  7.344 25.809 20.469  0.0000  0.0000  0.0000
 1992 334    47    43    186  2.4899  0.0139  1.5219  0.5151  0.2538 0.00000  3.496  7.298 28.033 23.553  0.0000  0.0000  0.0000
 1992 335    48    44    196  1.7760  0.0124  1.0586  0.4143  0.1639 0.00000  3.486  7.232 22.221 20.393  0.0000  0.0000  0.0000
 1992 336    49    45    216  3.3860  0.0092  2.0927  0.8179  0.1849 0.00000  3.521  7.241 22.052 16.534  0.0000  0.0000  0.0000
 1992 337    50    46    239  3.7567  0.0098  2.3230  0.9068  0.2040 0.00000  3.550  7.253 22.743 16.116  0.0000  0.0000  0.0000
 1992 338    51    47    267  4.6848  0.0128  2.8759  1.1210  0.2886 0.00000  3.574  7.261 25.082 17.738  0.0000  0.0000  0.0000
 1992 339    52    48    300  5.4737  0.0144  3.3589  1.3074  0.3403 0.00000  3.594  7.272 25.747 17.759  0.0000  0.0000  0.0000
 1992 340    53    49    331  5.3419  0.0201  3.2402  1.2589  0.3981 0.00000  3.594  7.251 25.823 20.200  0.0000  0.0000  0.0000
 1992 341    54    50    368  6.3082  0.0271  3.7691  1.4613  0.5640 0.00000  3.584  7.216 26.986 23.154  0.0000  0.0000  0.0000
 1992 342    55    51    414  7.7969  0.0271  4.7203  1.8264  0.5995 0.00000  3.586  7.210 25.963 21.523  0.0000  0.0000  0.0000
 1992 343    56    52    464  8.3881  0.0272  5.1189  1.9772  0.5840 0.00000  3.591  7.212 25.383 19.904  0.0000  0.0000  0.0000
 1992 344    57    53    510  8.0028  0.0355  4.8155  1.8562  0.6744 0.00000  3.578  7.184 26.072 21.918  0.0000  0.0000  0.0000
 1992 345    58    54    565  9.2481  0.0361  5.6196  2.1622  0.6942 0.00000  3.573  7.173 24.236 20.799  0.0000  0.0000  0.0000
 1992 346    59    55    645 13.4917  0.0373  8.3816  3.0662  0.8712 0.03501  3.650  7.325 24.122 19.825  0.0000  0.0000  0.0000
 1992 347    60    56    718 12.3124  0.0382  7.4106  2.9242  0.7902 0.05950  3.706  7.508 25.237 18.256  0.0000  0.0000  0.0000
 1992 348    61    57    809 15.2662  0.0516  9.1738  3.5608  1.0772 0.11572  3.795  7.792 25.361 20.349  0.0000  0.0000  0.0000
 1992 349    62    58    910 16.8799  0.0554 10.1248  3.9254  1.1173 0.17123  3.906  8.138 25.086 19.323  0.0000  0.0000  0.0000
 1992 350    63    59   1021 18.4153  0.0578 11.0229  4.2408  1.1359 0.22928  4.032  8.523 24.954 18.010  0.0000  0.0000  0.0000
 1992 351    64    60   1135 19.1031  0.0707 11.3215  4.3758  1.2316 0.28229  4.155  8.903 24.583 18.533  0.0000  0.0000  0.0000
 1992 352    65    61   1204 12.7561  0.0976  7.2760  2.9449  1.1434 0.21752  4.221  9.100 23.872 20.794  0.0000  0.0000  0.0000
 1992 353    66    62   1355 24.0160  0.1005 15.6601  4.7846  1.7355 0.53745  4.454  9.681 26.124 20.181  0.0000  0.0000  0.0000
 1992 354    67    63   1491 25.3155  0.1353 12.8384  6.0973  2.3466 0.50820  4.546 10.080 29.917 22.866  0.0000  0.0000  0.0000
 1992 355    68    64   1634 27.1111  0.1628 14.6274  6.2579  2.6494 0.65788  4.727 10.547 29.919 23.691  0.0000  0.0000  0.0000
 1992 356    69    65   1792 28.4394  0.1625 16.1046  6.4770  2.2520 0.80543  4.924 11.067 26.589 20.826  0.0000  0.0000  0.0000
 1992 357    70    66   1925 25.1175  0.2289 13.5669  5.5877  2.8799 0.75904  5.059 11.436 30.086 24.860  0.0000  0.0000  0.0000
 1992 358    71    67   2006 17.1478  0.2683  8.8889  3.7664  2.4038 0.55578  5.124 11.613 28.420 25.198  0.0000  0.0000  0.0000
 1992 359    72    68   2178 28.4449  0.2442 18.1554  5.2317  2.6459 1.22383  5.385 12.230 25.767 22.402  0.0000  0.0000  0.0000
 1992 360    73    69   2371 33.5318  0.2681 18.6658  7.3107  2.9128 1.40833  5.576 12.828 25.830 21.821  0.0000  0.0000  0.0000
 1992 361    74    70   2567 34.4886  0.2853 19.8373  7.0118  2.8162 1.60995  5.825 13.449 24.682 20.816  0.0000  0.0000  0.0000
 1992 362    75    71   2778 33.8393  0.2942 21.0975  6.4954  2.6173 1.75636  6.061 14.048 24.266 19.541  0.0000  0.0000  0.0000
 1992 363    76    72   3001 35.6011  0.0000 21.5986  6.0388  2.9211 2.08068  6.394 14.896 25.731 19.824  0.0000  0.0000  0.0000
 1992 364    77    73   3109 21.2661  0.5036 11.9183  3.8829  3.0997 1.11582  6.463 15.046 28.222 23.925  0.0000  0.0000  0.0000
 1992 365    78    74   3201 18.0976  0.4665 10.3850  3.3159  2.4200 0.98172  6.525 15.173 22.792 21.682  0.0000  0.0000  0.0000
 1992 366    79    75   3267 16.5070  0.4348  9.5256  3.0096  2.0907 0.88488  6.582 15.285 20.702 20.165  0.0000  0.0000  0.0000
 1993 001    80    76   3336 16.3127  0.4329  9.4301  2.8691  2.0313 0.87731  6.638 15.397 20.584 19.724  0.0000  0.0000  0.0000
 1993 002    81    77   3428 18.5582  0.4855 10.6198  3.1650  2.3918 1.01665  6.706 15.536 22.714 20.852  0.0000  0.0000  0.0000
 1993 003    82    78   3669 38.7326  0.0000 19.8774  5.1151  3.8438 6.16684  7.703 18.275 25.654 22.001  0.0000  0.0000  0.0000
 1993 004    83    79   3906 40.0798  0.7238 23.8060  6.7845  4.5452 2.67684  7.868 18.648 28.069 23.378  0.0000  0.0000  0.0000
 1993 005    84    80   4093 36.0567  0.8493 19.4921  6.6331  4.9994 2.24586  7.976 18.868 29.560 25.119  0.0000  0.0000  0.0000
 1993 006    85    81   4283 37.4111  0.9285 19.9428  6.8227  5.6756 2.35584  8.081 19.087 31.186 26.278  0.0000  0.0000  0.0000
 1993 007    86    82   4360 19.6667  0.9550 10.3641  3.7005  3.8544 0.78809  8.043 18.953 27.793 24.533  0.0000  0.0000  0.0000
 1993 008    87    83   4545 34.1933  0.8942 19.6592  6.1014  4.3764 2.12793  8.146 19.160 25.951 23.121  0.0000  0.0000  0.0000
 1993 009    88    84   4789 42.2215  0.0000 23.3605  7.0521  4.2698 3.12576  8.470 19.925 25.645 20.915  0.0000  0.0000  0.0000
 1993 010    89    85   5016 42.1903  0.9221 23.0555  7.6741  4.8868 2.83942  8.610 20.239 28.256 21.949  0.0000  0.0000  0.0000
 1993 011    90    86   5235 42.8807  1.1628 22.8793  7.7370  6.4334 2.79919  8.721 20.474 30.972 25.525  0.0000  0.0000  0.0000
 1993 012    91    87   5445 43.1066  1.2886 22.1316  7.5726  7.6704 2.74456  8.813 20.664 33.609 27.731  0.0000  0.0000  0.0000
 1993 013    92    88   5653 43.0579  1.3314 22.3149  7.6942  7.2659 2.67456  8.899 20.834 32.152 26.668  0.0000  0.0000  0.0000
 1993 014    93    89   5797 33.2809  1.2556 16.9301  5.5921  6.8550 1.63075  8.932 20.857 32.309 27.255  0.0000  0.0000  0.0000
 1993 015    94    90   5964 38.5196  1.4544 20.3781  6.9911  6.3946 2.09390  8.980 20.911 29.016 25.324  0.0000  0.0000  0.0000
 1993 016    95    91   6016 20.0341  0.1963 10.1495  3.3088  4.6255 0.29562  9.058 20.990 26.869 23.858  6.3571 20.5000 31.2684
 1993 017    96    92   6185 34.7970  0.9887 19.5830  6.9904  3.4491 1.68951  9.123 21.093 22.008 17.779  6.2764 18.7712 33.5014
 1993 018    97    93   6295 28.7828  1.0522 15.5245  5.9820  3.3582 1.02055  9.134 21.056 22.908 17.890  6.2535 18.3896 34.0260
 1993 019    98    94   6474 41.3292  1.3875 22.4399  7.9209  5.2071 2.30090  9.212 21.192 26.244 21.334  6.2275 19.1968 33.3811
 1993 020    99    95   6648 42.6155  1.6876 22.0566  8.1587  6.8164 2.20437  9.255 21.244 29.235 24.576  6.3081 19.7408 32.3336
 1993 021   100    96   6768 36.9929  1.7556 18.1946  7.4146  6.8582 1.22986  9.226 21.104 30.678 25.087  6.3608 19.9946 31.7507
 1993 022   101    97   6884 42.9659  1.8825 21.0094  8.3298  8.2431 1.89336  9.237 21.071 32.432 26.734  6.4316 20.1375 31.1651
 1993 023   102    98   6995 40.9475  2.0198 18.8627  7.9139  9.3425 1.52072  9.202 20.935 34.191 28.923  6.5364 20.2393 30.4080
 1993 024   103    99   7096 39.5877  2.0926 18.3884  7.7529  9.4421 1.17716  9.140 20.721 34.123 29.213  6.6112 20.3055 29.8746
 1993 025   104   100   7158 29.4622  1.9435 14.9202  6.2612  6.3027 0.00000  9.009 20.308 28.820 24.700  6.5648 20.3557 30.1145
 1993 026   105   101   7273 39.6446  1.8319 19.1911  8.7439  6.7180 0.77473  8.948 20.080 29.424 23.763  6.5174 20.3874 30.3790
 1993 027   106   102   7265 20.2159  1.9153 10.7782  3.8187  6.1232 0.04480  8.829 19.686 28.654 25.680  6.5175 20.4100 30.3553
 1993 028   107   103   7286 35.7901  2.0194 16.5129  8.3260  7.3460 0.00000  8.693 19.247 29.402 25.783  6.5194 20.4271 30.3268
 1993 029   108   104   7390 37.7797  1.8283 20.0547  8.5549  6.2581 0.00000  8.572 18.844 27.101 23.232  6.4768 20.4389 30.5812
 1993 030   109   105   7456 30.5626  1.7667 15.3957  7.0560  5.5943 0.00000  8.456 18.453 26.829 22.531  6.4373 20.4329 30.8337
 1993 031   110   106   7503 27.7242  1.9025 13.9399  6.1116  6.1655 0.00000  8.328 18.025 27.053 24.367  6.4316 20.4439 30.8588
 1993 032   111   107   7569 34.2963  1.9441 16.4783  8.0697  7.1770 0.00000  8.196 17.582 28.222 25.464  6.4415 20.4522 30.7882
 1993 033   112   108   7615 37.7355  1.8366 18.4999  8.8375  6.8569 0.00000  8.072 17.159 27.580 24.214  6.4342 20.4588 30.8273
 1993 034   113   109   7723 39.4512  1.7489 19.3489  9.4336  6.5991 0.00000  7.952 16.749 27.193 23.362  6.4179 20.4635 30.9248
 1993 035   114   110   7816 38.9604  1.6955 19.2193  9.4373  6.3533 0.00000  7.835 16.349 26.875 22.758  6.3993 20.4606 31.0438
 1993 036   115   111   7922 37.8264  1.5805 18.7856  9.6157  5.9400 0.00000  7.726 15.970 27.462 21.555  6.3769 20.4266 31.2180
 1993 037   116   112   7999 33.4909  1.7136 16.3534  8.3370  6.8322 0.00000  7.601 15.554 28.895 24.099  6.3770 20.4351 31.2086
 1993 038   117   113   8033 26.7639  1.4673 13.1841  6.5849  6.4287 0.08140  7.518 15.226 27.459 24.346  6.4044 20.3908 31.0820
 1993 039   118   114   8059 18.9258  1.4109 10.6965  4.3018  4.3841 0.01898  7.425 14.880 22.813 20.594  6.3918 20.3320 31.2193
 1993 040   119   115   8075 13.8256  1.2325  8.7788  3.0227  3.0670 0.00410  7.344 14.569 19.838 17.190  6.3854 20.1457 31.4455
 1993 041   120   116   8177 33.5192  1.3297 17.0572  9.1102  4.6125 0.00000  7.251 14.224 23.699 18.977  6.3723 20.0065 31.6667
 1993 042   121   117   8268 34.9100  1.4708 16.9979  9.2311  6.3272 0.00000  7.138 13.834 28.230 22.364  6.3642 20.0332 31.6906
 1993 043   122   118   8341 29.3317  1.2425 14.3421  7.4357  6.3351 0.07616  7.064 13.529 28.043 23.215  6.3746 20.0365 31.6221
 1993 044   123   119   8390 24.7030  1.3015 12.6274  6.0743  5.6005 0.04148  6.969 13.187 25.662 22.372  6.3742 20.0419 31.6191
 1993 045   124   120   8446 27.8241  1.2796 13.4808  6.9072  6.5000 0.05588  6.874 12.848 27.765 23.761  6.3824 20.0506 31.5596
 1993 046   125   121   8534 30.9768  1.0468 14.6937  8.1287  6.0909 0.09379  6.807 12.584 27.900 22.288  6.3886 20.0388 31.5324
 1993 047   126   122   8572 18.0963  1.2956  9.5872  4.0908  4.8758 0.00484  6.681 12.203 25.553 21.551  6.3820 20.0424 31.5698
 1993 048   127   123   8631 25.1335  1.2197 11.7223  6.0723  6.6562 0.06240  6.573 11.862 27.734 24.912  6.3946 20.0446 31.4894
 1993 049   128   124   8689 24.3827  1.1562 11.1126  5.6916  6.6869 0.06408  6.464 11.534 29.575 24.931  6.4062 20.0450 31.4164
 1993 050   129   125   8731 20.9227  1.1868  9.8589  4.7131  5.8771 0.04200  6.338 11.180 27.233 23.947  6.4105 20.0496 31.3849
 1993 051   130   126   8712 14.3082  1.0263  7.4180  3.3097  3.8500 0.03200  6.223 10.867 22.537 19.752  6.4086 20.0222 31.4242
 1993 052   131   127   8780 24.0422  0.9526 11.0483  5.8602  5.2445 0.06856  6.120 10.588 27.239 21.849  6.4102 20.0128 31.4235
 1993 053   132   128   8848 21.9829  0.8962 10.4878  5.5748  4.1968 0.05761  6.016 10.318 23.982 19.663  6.4093 19.9731 31.4690
 1993 054   133   129   8927 24.3132  0.7719 11.2624  6.4991  4.2579 0.08765  5.933 10.100 24.598 19.389  6.4115 19.9209 31.5069
 1993 055   134   130   8994 21.5890  0.8537 10.0272  5.8977  4.2012 0.06133  5.825  9.839 24.680 19.686  6.4114 19.8873 31.5415
 1993 056   135   131   9055 21.0972  0.8496  9.4481  5.6409  4.5881 0.07023  5.715  9.580 25.415 20.993  6.4130 19.8732 31.5456
 1993 057   136   132   9116 21.0644  0.9382  9.3995  5.6405  4.7775 0.04200  5.577  9.275 26.062 21.535  6.4119 19.8716 31.5540
 1993 058   137   133   9172 20.1530  0.8346  8.6482  5.2671  4.8625 0.06852  5.458  9.014 26.786 21.868  6.4145 19.8661 31.5434
 1993 059   138   134   9204 16.4938  1.1254  6.7516  3.3659  5.9222 0.00000  5.267  8.617 28.893 25.401  6.3951 19.9212 31.6094
 1993 060   139   135   8881  7.0598  0.8641  3.5464  1.5400  2.7260 0.00000  5.063  7.791 20.626 17.456  6.3937 19.8983 31.6410
 1993 061   140   136   8667 10.8044  0.7152  5.1381  2.5599  2.7023 0.00000  4.867  7.080 21.340 17.067  6.3786 19.8886 31.7454
 1993 062   141   137   8503 10.8166  0.6309  4.9706  2.0513  2.9307 0.00000  4.669  6.455 22.808 18.252  6.3527 19.9160 31.8794
 1993 063   142   138   8364  7.1693  0.5033  3.3031  1.4196  2.1967 0.00000  4.492  5.934 20.844 15.933  6.3442 19.8994 31.9495
 1993 064   143   139   8246  6.4788  0.4700  2.6993  1.3374  2.6083 0.00000  4.308  5.467 23.553 18.003  6.3433 19.8864 31.9679
 1993 065   144   140   8136  4.4598  0.4805  1.0506  0.3014  3.6239 0.00000  4.098  5.028 26.367 23.131  6.3432 19.8881 31.9670
 1993 066   145   141   8041  3.2423  0.4394  0.0000  0.0000  3.8470 0.00000  3.883  4.639 27.540 24.483  6.3432 19.8881 31.9670
 1993 067   146   142   7955  3.3182  0.3722  0.3588  0.1029  3.2405 0.00000  3.692  4.308 25.965 22.304  6.3431 19.8885 31.9672
 1993 068   147   143   7893  2.8383  0.3257  0.1403  0.0403  2.9885 0.00000  3.514  4.023 26.661 21.225  6.3430 19.8886 31.9675
 1993 069   148   144   7840  2.2809  0.3024  0.0000  0.0000  3.1064 0.00000  3.341  3.766 27.503 21.963  6.3430 19.8886 31.9675
 1993 070   149   145   7795  1.8330  0.2792  0.0000  0.0000  3.0532 0.00000  3.176  3.537 27.305 22.015  6.3430 19.8886 31.9675
 1993 071   150   146   7758  1.3813  0.2712  0.0000  0.0000  3.5062 0.00000  3.011  3.323 29.005 24.179  6.3430 19.8886 31.9675
