*PLANT N BALANCE

*DSSAT Cropping System Model Ver. 4.6.1.000 -release      APR 20, 2017; 11:17:54
                                                                                
*RUN   1        : UYSB                      CRGRO046 UYSB1239    1              
 MODEL          : CRGRO046 - Soybean                                            
 EXPERIMENT     : UYSB1239 SN late to create DSS                                
 DATA PATH      :                                                               
 TREATMENT  1   : UYSB                      CRGRO046                            
                                                                                
                                                                                
 CROP           : Soybean          CULTIVAR : GM 4 URUGUAY     ECOTYPE :INDETE  
 STARTING DATE  : APR 17 1990                                                   
 PLANTING DATE  : APR 20 1990        PLANTS/m2 :  7.0     ROW SPACING :  15.cm  
 WEATHER        : UYTA   1990                                                   
 SOIL           : UYSN0J6O17     TEXTURE : CL    -  H08-06    YOUNG_Brun_E_T    
 SOIL INITIAL C : DEPTH: 70cm EXTR. H2O: 99.9mm  NO3: 19.5kg/ha  NH4: 13.8kg/ha 
 WATER BALANCE  : RAINFED                                                       
 IRRIGATION     : NOT IRRIGATED                                                 
 NITROGEN BAL.  : SOIL-N, N-UPTAKE & DYNAMIC N-FIXATION SIMULATION              
 N-FERTILIZER   : NO N-FERTILIZER APPLIED                                       
 RESIDUE/MANURE : INITIAL :     0 kg/ha ;       0 kg/ha IN     0 APPLICATIONS   
 ENVIRONM. OPT. : DAYL=    0.00  SRAD=    0.00  TMAX=    0.00  TMIN=    0.00    
                  RAIN=    0.00  CO2 =    0.00  DEW =    0.00  WIND=    0.00    
 SIMULATION OPT : WATER   :Y  NITROGEN:Y  N-FIX:Y  PHOSPH :N  PESTS  :N         
                  PHOTO   :C  ET      :R  INFIL:S  HYDROL :R  SOM    :G         
                  CO2 354ppm  NSWIT   :1  EVAP :S  SOIL   :2  STEMP  :D         
 MANAGEMENT OPT : PLANTING:R  IRRIG   :N  FERT :N  RESIDUE:N  HARVEST:M         
                  WEATHER :M  TILLAGE :N                                        
                                                                                
*SUMMARY OF SOIL AND GENETIC INPUT PARAMETERS                                   
                                                                                
   SOIL LOWER UPPER   SAT  EXTR  INIT   ROOT   BULK     pH    NO3    NH4    ORG 
  DEPTH LIMIT LIMIT    SW    SW    SW   DIST   DENS                          C  
   cm   cm3/cm3    cm3/cm3    cm3/cm3         g/cm3         ugN/g  ugN/g     %  
------------------------------------------------------------------------------- 
  0-  5 0.167 0.343 0.449 0.176 0.219   1.00   1.19   6.40   5.00   1.50   3.25 
  5- 15 0.167 0.343 0.449 0.176 0.219   1.00   1.19   6.40   5.00   1.50   3.25 
 15- 18 0.167 0.343 0.449 0.176 0.219   1.00   1.19   6.40   5.00   1.50   3.25 
 18- 32 0.175 0.334 0.446 0.159 0.222   0.50   1.26   6.40   5.00   1.50   2.58 
 32- 42 0.213 0.342 0.449 0.129 0.342   0.40   1.35   6.70   0.00   1.50   1.57 
 42- 56 0.189 0.307 0.436 0.118 0.307   0.10   1.41   7.00   0.00   1.50   0.94 
 56- 70 0.189 0.307 0.436 0.118 0.307   0.10   1.41   7.00   0.00   1.50   0.94 
                                                                                
TOT- 70  12.9  22.9  31.0  10.0  19.1  <--cm   -  kg/ha-->   19.5   13.8 173432 
SOIL ALBEDO    : 0.12      EVAPORATION LIMIT :10.00         MIN. FACTOR  : 1.00 
RUNOFF CURVE # : 0.75      DRAINAGE RATE     : 0.25         FERT. FACTOR : 1.00 
                                                                                
 Soybean    CULTIVAR :UY0141-GM 4 URUGUAY       ECOTYPE :INDETE                 
 CSDVAR :13.39  PPSEN  : 0.29  EMG-FLW:20.80  FLW-FSD:18.00  FSD-PHM : 36.00    
 WTPSD  :0.200  SDPDVR : 1.70  SDFDUR :26.00  PODDUR :10.00  XFRUIT  :  1.00    
 THRESH : 77.0  SDPRO  :0.405  SDLIP   : 0.205                                  


   PLANT COMPONENT  HARVEST     LOST*   TOTAL  BALANCE
   ---------------  -------- kg[N]/ha -------  -------
   Leaf N              0.00     3.71     3.71
   Stem N              0.76     0.00     0.76
   Shell N             0.00     0.00     0.00
   Seed N              0.00     0.00     0.00
   Root N              0.71     0.05     0.77
   Nodule N            0.04     0.08     0.11
   Total N             1.51     3.84     5.35
   N leakage                             0.45
   TOTAL N                                        5.80


   N INPUTS TO SYSTEM                kg[N]/ha
   ------------------                --------
   Seed N At Planting                    0.68
   N2 Fixed                              0.11
   N Uptake from Soil                    5.03
   TOTAL N                                        5.83

   * Lost due to senescence, freeze, pest or disease damage.

*******************************************************************************

*DSSAT Cropping System Model Ver. 4.6.1.000 -release      APR 20, 2017; 11:17:54
                                                                                
*RUN   2        : UYSB                      CRGRO046 UYSB1239    1              
 MODEL          : CRGRO046 - Soybean                                            
 EXPERIMENT     : UYSB1239 SN late to create DSS                                
 DATA PATH      :                                                               
 TREATMENT  1   : UYSB                      CRGRO046                            
                                                                                
                                                                                
 CROP           : Soybean          CULTIVAR : GM 4 URUGUAY     ECOTYPE :INDETE  
 STARTING DATE  : APR 17 1991                                                   
 PLANTING DATE  : APR 20 1991        PLANTS/m2 :  7.0     ROW SPACING :  15.cm  
 WEATHER        : UYTA9101                                                      
 SOIL           : UYSN0J6O17     TEXTURE : CL    -  H08-06    YOUNG_Brun_E_T    
 SOIL INITIAL C : DEPTH: 70cm EXTR. H2O: 99.9mm  NO3: 19.5kg/ha  NH4: 13.8kg/ha 
 WATER BALANCE  : RAINFED                                                       
 IRRIGATION     : NOT IRRIGATED                                                 
 NITROGEN BAL.  : SOIL-N, N-UPTAKE & DYNAMIC N-FIXATION SIMULATION              
 N-FERTILIZER   : NO N-FERTILIZER APPLIED                                       
 RESIDUE/MANURE : INITIAL :     0 kg/ha ;       0 kg/ha IN     0 APPLICATIONS   
 ENVIRONM. OPT. : DAYL=    0.00  SRAD=    0.00  TMAX=    0.00  TMIN=    0.00    
                  RAIN=    0.00  CO2 =    0.00  DEW =    0.00  WIND=    0.00    
 SIMULATION OPT : WATER   :Y  NITROGEN:Y  N-FIX:Y  PHOSPH :N  PESTS  :N         
                  PHOTO   :C  ET      :R  INFIL:S  HYDROL :R  SOM    :G         
                  CO2 355ppm  NSWIT   :1  EVAP :S  SOIL   :2  STEMP  :D         
 MANAGEMENT OPT : PLANTING:R  IRRIG   :N  FERT :N  RESIDUE:N  HARVEST:M         
                  WEATHER :M  TILLAGE :N                                        
                                                                                
*SUMMARY OF SOIL AND GENETIC INPUT PARAMETERS                                   
                                                                                
   SOIL LOWER UPPER   SAT  EXTR  INIT   ROOT   BULK     pH    NO3    NH4    ORG 
  DEPTH LIMIT LIMIT    SW    SW    SW   DIST   DENS                          C  
   cm   cm3/cm3    cm3/cm3    cm3/cm3         g/cm3         ugN/g  ugN/g     %  
------------------------------------------------------------------------------- 
  0-  5 0.167 0.343 0.449 0.176 0.219   1.00   1.19   6.40   5.00   1.50   3.25 
  5- 15 0.167 0.343 0.449 0.176 0.219   1.00   1.19   6.40   5.00   1.50   3.25 
 15- 18 0.167 0.343 0.449 0.176 0.219   1.00   1.19   6.40   5.00   1.50   3.25 
 18- 32 0.175 0.334 0.446 0.159 0.222   0.50   1.26   6.40   5.00   1.50   2.58 
 32- 42 0.213 0.342 0.449 0.129 0.342   0.40   1.35   6.70   0.00   1.50   1.57 
 42- 56 0.189 0.307 0.436 0.118 0.307   0.10   1.41   7.00   0.00   1.50   0.94 
 56- 70 0.189 0.307 0.436 0.118 0.307   0.10   1.41   7.00   0.00   1.50   0.94 
                                                                                
TOT- 70  12.9  22.9  31.0  10.0  19.1  <--cm   -  kg/ha-->   19.5   13.8 173432 
SOIL ALBEDO    : 0.12      EVAPORATION LIMIT :10.00         MIN. FACTOR  : 1.00 
RUNOFF CURVE # : 0.75      DRAINAGE RATE     : 0.25         FERT. FACTOR : 1.00 
                                                                                
 Soybean    CULTIVAR :UY0141-GM 4 URUGUAY       ECOTYPE :INDETE                 
 CSDVAR :13.39  PPSEN  : 0.29  EMG-FLW:20.80  FLW-FSD:18.00  FSD-PHM : 36.00    
 WTPSD  :0.200  SDPDVR : 1.70  SDFDUR :26.00  PODDUR :10.00  XFRUIT  :  1.00    
 THRESH : 77.0  SDPRO  :0.405  SDLIP   : 0.205                                  


   PLANT COMPONENT  HARVEST     LOST*   TOTAL  BALANCE
   ---------------  -------- kg[N]/ha -------  -------
   Leaf N              0.38     7.67     8.05
   Stem N              2.72     1.30     4.02
   Shell N             4.25    11.50    15.75
   Seed N             23.56     0.00    23.56
   Root N              2.43     1.11     3.54
   Nodule N            0.06     0.61     0.67
   Total N            33.39    22.20    55.59
   N leakage                             4.12
   TOTAL N                                       59.70


   N INPUTS TO SYSTEM                kg[N]/ha
   ------------------                --------
   Seed N At Planting                    0.68
   N2 Fixed                              5.74
   N Uptake from Soil                   53.29
   TOTAL N                                       59.71

   * Lost due to senescence, freeze, pest or disease damage.

*******************************************************************************

*DSSAT Cropping System Model Ver. 4.6.1.000 -release      APR 20, 2017; 11:17:54
                                                                                
*RUN   3        : UYSB                      CRGRO046 UYSB1239    1              
 MODEL          : CRGRO046 - Soybean                                            
 EXPERIMENT     : UYSB1239 SN late to create DSS                                
 DATA PATH      :                                                               
 TREATMENT  1   : UYSB                      CRGRO046                            
                                                                                
                                                                                
 CROP           : Soybean          CULTIVAR : GM 4 URUGUAY     ECOTYPE :INDETE  
 STARTING DATE  : APR 16 1992                                                   
 PLANTING DATE  : APR 19 1992        PLANTS/m2 :  7.0     ROW SPACING :  15.cm  
 WEATHER        : UYTA9201                                                      
 SOIL           : UYSN0J6O17     TEXTURE : CL    -  H08-06    YOUNG_Brun_E_T    
 SOIL INITIAL C : DEPTH: 70cm EXTR. H2O: 99.9mm  NO3: 19.5kg/ha  NH4: 13.8kg/ha 
 WATER BALANCE  : RAINFED                                                       
 IRRIGATION     : NOT IRRIGATED                                                 
 NITROGEN BAL.  : SOIL-N, N-UPTAKE & DYNAMIC N-FIXATION SIMULATION              
 N-FERTILIZER   : NO N-FERTILIZER APPLIED                                       
 RESIDUE/MANURE : INITIAL :     0 kg/ha ;       0 kg/ha IN     0 APPLICATIONS   
 ENVIRONM. OPT. : DAYL=    0.00  SRAD=    0.00  TMAX=    0.00  TMIN=    0.00    
                  RAIN=    0.00  CO2 =    0.00  DEW =    0.00  WIND=    0.00    
 SIMULATION OPT : WATER   :Y  NITROGEN:Y  N-FIX:Y  PHOSPH :N  PESTS  :N         
                  PHOTO   :C  ET      :R  INFIL:S  HYDROL :R  SOM    :G         
                  CO2 356ppm  NSWIT   :1  EVAP :S  SOIL   :2  STEMP  :D         
 MANAGEMENT OPT : PLANTING:R  IRRIG   :N  FERT :N  RESIDUE:N  HARVEST:M         
                  WEATHER :M  TILLAGE :N                                        
                                                                                
*SUMMARY OF SOIL AND GENETIC INPUT PARAMETERS                                   
                                                                                
   SOIL LOWER UPPER   SAT  EXTR  INIT   ROOT   BULK     pH    NO3    NH4    ORG 
  DEPTH LIMIT LIMIT    SW    SW    SW   DIST   DENS                          C  
   cm   cm3/cm3    cm3/cm3    cm3/cm3         g/cm3         ugN/g  ugN/g     %  
------------------------------------------------------------------------------- 
  0-  5 0.167 0.343 0.449 0.176 0.219   1.00   1.19   6.40   5.00   1.50   3.25 
  5- 15 0.167 0.343 0.449 0.176 0.219   1.00   1.19   6.40   5.00   1.50   3.25 
 15- 18 0.167 0.343 0.449 0.176 0.219   1.00   1.19   6.40   5.00   1.50   3.25 
 18- 32 0.175 0.334 0.446 0.159 0.222   0.50   1.26   6.40   5.00   1.50   2.58 
 32- 42 0.213 0.342 0.449 0.129 0.342   0.40   1.35   6.70   0.00   1.50   1.57 
 42- 56 0.189 0.307 0.436 0.118 0.307   0.10   1.41   7.00   0.00   1.50   0.94 
 56- 70 0.189 0.307 0.436 0.118 0.307   0.10   1.41   7.00   0.00   1.50   0.94 
                                                                                
TOT- 70  12.9  22.9  31.0  10.0  19.1  <--cm   -  kg/ha-->   19.5   13.8 173432 
SOIL ALBEDO    : 0.12      EVAPORATION LIMIT :10.00         MIN. FACTOR  : 1.00 
RUNOFF CURVE # : 0.75      DRAINAGE RATE     : 0.25         FERT. FACTOR : 1.00 
                                                                                
 Soybean    CULTIVAR :UY0141-GM 4 URUGUAY       ECOTYPE :INDETE                 
 CSDVAR :13.39  PPSEN  : 0.29  EMG-FLW:20.80  FLW-FSD:18.00  FSD-PHM : 36.00    
 WTPSD  :0.200  SDPDVR : 1.70  SDFDUR :26.00  PODDUR :10.00  XFRUIT  :  1.00    
 THRESH : 77.0  SDPRO  :0.405  SDLIP   : 0.205                                  


   PLANT COMPONENT  HARVEST     LOST*   TOTAL  BALANCE
   ---------------  -------- kg[N]/ha -------  -------
   Leaf N              0.55    11.12    11.67
   Stem N              4.51     1.96     6.47
   Shell N             5.04    11.70    16.74
   Seed N             15.08     0.00    15.08
   Root N              3.09     1.63     4.73
   Nodule N            0.14     0.90     1.04
   Total N            28.41    27.32    55.74
   N leakage                             5.35
   TOTAL N                                       61.08


   N INPUTS TO SYSTEM                kg[N]/ha
   ------------------                --------
   Seed N At Planting                    0.68
   N2 Fixed                             10.15
   N Uptake from Soil                   50.26
   TOTAL N                                       61.09

   * Lost due to senescence, freeze, pest or disease damage.

*******************************************************************************
