*PLANT C OUTPUT FILE

*DSSAT Cropping System Model Ver. 4.6.1.000 -release      OCT 11, 2016; 16:00:59
                                                                                
*RUN   1        : UYSB                      CRGRO046 UYSB0849    1              
 MODEL          : CRGRO046 - Soybean                                            
 EXPERIMENT     : UYSB0849 SN late to create DSS                                
 DATA PATH      :                                                               
 TREATMENT  1   : UYSB                      CRGRO046                            
  
@YEAR DOY   DAS   DAP   TWAD    PHAD    CMAD    CGRD    GRAD    MRAD    CHAD   CL%D   CS%D   TGNN   TGAV    GN%D    GL%D    GC%D
 1990 285     4     0      0  0.0000  0.0000  0.0000  0.0000  0.0000 0.00000  0.000  0.000 18.143 15.259  0.0000  0.0000  0.0000
 1990 286     5     1      0  0.0000  0.0000  0.0000  0.0000  0.0000 0.00000  0.000  0.000 19.436 14.450  0.0000  0.0000  0.0000
 1990 287     6     2      0  0.0000  0.0000  0.0000  0.0000  0.0000 0.00000  0.000  0.000 20.891 16.936  0.0000  0.0000  0.0000
 1990 288     7     3      0  0.0000  0.0000  0.0000  0.0000  0.0000 0.00000  0.000  0.000 18.382 14.390  0.0000  0.0000  0.0000
 1990 289     8     4      0  0.0000  0.0000  0.0000  0.0000  0.0000 0.00000  0.000  0.000 18.131 12.605  0.0000  0.0000  0.0000
 1990 290     9     5      0  0.0000  0.0000  0.0000  0.0000  0.0000 0.00000  0.000  0.000 19.496 15.039  0.0000  0.0000  0.0000
 1990 291    10     6      0  0.0000  0.0000  0.0000  0.0000  0.0000 0.00000  0.000  0.000 22.867 19.265  0.0000  0.0000  0.0000
 1990 292    11     7      0  0.0000  0.0000  0.0000  0.0000  0.0000 0.00000  0.000  0.000 22.684 19.581  0.0000  0.0000  0.0000
 1990 293    12     8      8  0.0000  0.0005  0.0003  0.0001  0.0000 0.00000  3.945  7.884 22.494 19.640  0.0000  0.0000  0.0000
 1990 294    13     9      9  0.1519  0.0005  0.1001  0.0313  0.0095 0.00000  3.917  7.806 22.528 19.031  0.0000  0.0000  0.0000
 1990 295    14    10     10  0.1901  0.0005  0.1176  0.0414  0.0115 0.00000  3.871  7.744 23.049 18.872  0.0000  0.0000  0.0000
 1990 296    15    11     11  0.1911  0.0006  0.1215  0.0394  0.0125 0.00000  3.830  7.686 23.736 19.272  0.0000  0.0000  0.0000
 1990 297    16    12     12  0.1805  0.0006  0.1160  0.0370  0.0108 0.00000  3.797  7.639 20.951 17.952  0.0000  0.0000  0.0000
 1990 298    17    13     13  0.1658  0.0006  0.1063  0.0338  0.0111 0.00000  3.763  7.588 22.789 18.181  0.0000  0.0000  0.0000
 1990 299    18    14     15  0.2756  0.0009  0.1762  0.0547  0.0212 0.00000  3.722  7.544 25.505 21.647  0.0000  0.0000  0.0000
 1990 300    19    15     16  0.2627  0.0011  0.1664  0.0515  0.0230 0.00000  3.678  7.488 26.637 22.599  0.0000  0.0000  0.0000
 1990 301    20    16     17  0.1627  0.0011  0.1026  0.0321  0.0156 0.00000  3.633  7.416 23.023 21.128  0.0000  0.0000  0.0000
 1990 302    21    17     18  0.2233  0.0013  0.1306  0.0518  0.0239 0.00000  3.609  7.319 26.377 23.874  0.0000  0.0000  0.0000
 1990 303    22    18     21  0.4319  0.0013  0.2593  0.1010  0.0368 0.00000  3.617  7.286 27.211 23.314  0.0000  0.0000  0.0000
 1990 304    23    19     24  0.4839  0.0012  0.3036  0.1090  0.0299 0.00000  3.621  7.307 22.125 19.479  0.0000  0.0000  0.0000
 1990 305    24    20     27  0.5454  0.0014  0.3439  0.1186  0.0365 0.00000  3.614  7.329 23.028 20.382  0.0000  0.0000  0.0000
 1990 306    25    21     31  0.5803  0.0017  0.3646  0.1242  0.0415 0.00000  3.604  7.341 25.166 20.624  0.0000  0.0000  0.0000
 1990 307    26    22     33  0.4562  0.0024  0.2684  0.1017  0.0483 0.00000  3.582  7.268 27.049 24.438  0.0000  0.0000  0.0000
 1990 308    27    23     37  0.6168  0.0014  0.3990  0.1353  0.0316 0.00000  3.621  7.294 20.564 16.485  0.0000  0.0000  0.0000
 1990 309    28    24     40  0.5669  0.0010  0.3557  0.1329  0.0212 0.00000  3.637  7.326 17.197 12.688  0.0000  0.0000  0.0000
 1990 310    29    25     44  0.5925  0.0016  0.3741  0.1317  0.0299 0.00000  3.636  7.338 19.573 15.494  0.0000  0.0000  0.0000
 1990 311    30    26     50  0.9376  0.0023  0.5968  0.1975  0.0551 0.00000  3.628  7.372 22.077 18.498  0.0000  0.0000  0.0000
 1990 312    31    27     52  0.3617  0.0018  0.2230  0.0819  0.0229 0.00000  3.618  7.341 17.393 14.851  0.0000  0.0000  0.0000
 1990 313    32    28     57  0.8548  0.0028  0.5347  0.1835  0.0548 0.00000  3.609  7.339 21.281 18.704  0.0000  0.0000  0.0000
 1990 314    33    29     65  1.2173  0.0033  0.7608  0.2645  0.0769 0.00000  3.609  7.356 23.234 19.260  0.0000  0.0000  0.0000
 1990 315    34    30     74  1.5203  0.0043  0.9469  0.3229  0.1099 0.00000  3.602  7.372 25.354 21.164  0.0000  0.0000  0.0000
 1990 316    35    31     80  1.0800  0.0043  0.6761  0.2279  0.0780 0.00000  3.584  7.355 23.140 19.416  0.0000  0.0000  0.0000
 1990 317    36    32     92  1.9909  0.0068  1.1951  0.4066  0.2177 0.00000  3.565  7.350 32.604 26.731  0.0000  0.0000  0.0000
 1990 318    37    33    101  1.6677  0.0082  0.9812  0.3560  0.1989 0.00000  3.541  7.297 31.297 26.927  0.0000  0.0000  0.0000
 1990 319    38    34    108  1.1618  0.0064  0.7169  0.2524  0.0978 0.00000  3.517  7.262 22.378 20.265  0.0000  0.0000  0.0000
 1990 320    39    35    118  1.7912  0.0053  1.1629  0.3789  0.1008 0.00000  3.543  7.288 20.724 17.178  0.0000  0.0000  0.0000
 1990 321    40    36    136  2.8344  0.0061  1.7905  0.6105  0.1586 0.00000  3.547  7.347 23.771 17.753  0.0000  0.0000  0.0000
 1990 322    41    37    155  3.2415  0.0106  1.9396  0.7357  0.2742 0.00000  3.568  7.322 27.874 23.145  0.0000  0.0000  0.0000
 1990 323    42    38    176  3.7752  0.0146  2.1890  0.8234  0.4317 0.00000  3.571  7.277 31.799 27.643  0.0000  0.0000  0.0000
 1990 324    43    39    191  2.7511  0.0153  1.6162  0.6113  0.2885 0.00000  3.552  7.212 27.050 24.578  0.0000  0.0000  0.0000
 1990 325    44    40    223  5.4736  0.0158  3.2834  1.2745  0.4578 0.00000  3.573  7.226 27.340 23.793  0.0000  0.0000  0.0000
 1990 326    45    41    260  6.1841  0.0164  3.7359  1.4458  0.4501 0.01722  3.645  7.417 26.259 21.708  0.0000  0.0000  0.0000
 1990 327    46    42    304  7.3171  0.0190  4.4049  1.7051  0.5163 0.04464  3.769  7.772 26.284 21.268  0.0000  0.0000  0.0000
 1990 328    47    43    350  7.8026  0.0256  4.6213  1.8006  0.6276 0.07494  3.912  8.202 27.075 22.810  0.0000  0.0000  0.0000
 1990 329    48    44    395  7.7851  0.0324  4.5197  1.7873  0.6958 0.10231  4.057  8.651 27.701 23.759  0.0000  0.0000  0.0000
 1990 330    49    45    451  9.4247  0.0309  5.5502  2.2150  0.6294 0.15614  4.256  9.246 23.662 20.401  0.0000  0.0000  0.0000
 1990 331    50    46    504  8.8069  0.0241  5.2374  2.0688  0.4093 0.16678  4.433  9.771 19.679 15.665  0.0000  0.0000  0.0000
 1990 332    51    47    571 11.0905  0.0324  6.5253  2.6050  0.5821 0.23518  4.636 10.366 22.485 16.894  0.0000  0.0000  0.0000
 1990 333    52    48    654 13.8878  0.0499  8.0839  3.2315  0.9035 0.33401  4.862 11.028 25.083 19.743  0.0000  0.0000  0.0000
 1990 334    53    49    712 10.1181  0.0661  5.6314  2.3784  0.8197 0.26534  4.982 11.406 25.192 20.927  0.0000  0.0000  0.0000
 1990 335    54    50    795 14.3500  0.0726  8.1016  3.3514  1.0381 0.42837  5.200 12.011 24.821 20.628  0.0000  0.0000  0.0000
 1990 336    55    51    835  7.4261  0.0740  4.0398  1.7592  0.6164 0.23427  5.283 12.240 22.233 18.864  0.0000  0.0000  0.0000
 1990 337    56    52    924 15.2714  0.0683  8.6980  3.6074  0.8447 0.54351  5.527 12.893 21.353 17.230  0.0000  0.0000  0.0000
 1990 338    57    53   1033 18.8543  0.0962 10.5329  4.3940  1.2744 0.71374  5.790 13.595 25.575 19.374  0.0000  0.0000  0.0000
 1990 339    58    54   1108 14.9172  0.1669  7.6774  3.3236  1.8583 0.58436  5.933 13.976 30.689 26.388  0.0000  0.0000  0.0000
 1990 340    59    55   1196 15.8287  0.1479  9.6729  3.0779  1.3725 0.77724  6.202 14.559 24.514 21.611  0.0000  0.0000  0.0000
 1990 341    60    56   1335 21.6777  0.1559 13.9171  3.9544  1.6074 1.19224  6.532 15.377 23.968 20.670  0.0000  0.0000  0.0000
 1990 342    61    57   1444 21.9004  0.1563  9.3430  5.8373  1.4379 0.84523  6.590 15.761 23.261 18.601  0.0000  0.0000  0.0000
 1990 343    62    58   1473  8.6276  0.1493  3.3506  2.3639  0.7527 0.28204  6.619 15.811 18.965 16.994  0.0000  0.0000  0.0000
 1990 344    63    59   1506  9.1377  0.1642  5.3880  1.7827  0.8322 0.49466  6.770 16.034 19.019 17.729  0.0000  0.0000  0.0000
 1990 345    64    60   1637 22.5926  0.2061 12.6196  4.6586  1.6903 1.29934  7.019 16.675 23.626 19.934  0.0000  0.0000  0.0000
 1990 346    65    61   1704 13.3865  0.1688  6.2173  3.2730  0.9533 0.61040  7.058 16.860 20.467 16.345  0.0000  0.0000  0.0000
 1990 347    66    62   1806 19.5823  0.2328  9.8419  4.4320  1.5296 1.04837  7.204 17.250 22.707 19.231  0.0000  0.0000  0.0000
 1990 348    67    63   1915 20.4075  0.1901 10.4895  4.8246  1.2293 1.17070  7.391 17.713 20.355 16.198  0.0000  0.0000  0.0000
 1990 349    68    64   2075 28.3127  0.2759 15.6852  6.0169  2.0926 1.88431  7.703 18.419 25.117 19.241  0.0000  0.0000  0.0000
 1990 350    69    65   2235 28.4191  0.3757 15.8194  5.6684  2.7157 1.95286  7.972 19.013 28.004 22.092  0.0000  0.0000  0.0000
 1990 351    70    66   2337 19.6207  0.4760 10.1249  4.0566  2.6000 1.20893  8.029 19.183 28.491 24.155  0.0000  0.0000  0.0000
 1990 352    71    67   2518 29.1430  0.0000 13.8537  3.7723  2.6496 6.24336  9.512 23.074 24.496 21.522  0.0000  0.0000  0.0000
 1990 353    72    68   2705 30.7613  0.5025 18.0110  5.6712  2.5417 2.42878  9.689 23.391 24.111 20.098  0.0000  0.0000  0.0000
 1990 354    73    69   2902 32.0196  0.5723 19.0172  5.3561  2.8403 2.70683  9.878 23.747 25.358 20.665  0.0000  0.0000  0.0000
 1990 355    74    70   3076 29.6511  0.7172 17.2991  5.2295  3.3767 2.40868 10.004 23.949 27.952 22.972  0.0000  0.0000  0.0000
 1990 356    75    71   3145 16.4141  0.7537  9.4303  2.8755  2.4717 1.02487 10.010 23.864 24.809 22.409  0.0000  0.0000  0.0000
 1990 357    76    72   3289 26.1556  0.8046 14.9943  4.4898  3.2962 1.96686 10.095 23.975 26.991 23.193  0.0000  0.0000  0.0000
 1990 358    77    73   3384 19.5253  0.6802 11.3308  3.4831  2.2854 1.20478 10.130 23.980 23.216 20.028  0.0000  0.0000  0.0000
 1990 359    78    74   3572 31.1970  0.0000 16.3512  4.5921  2.7689 3.84800 10.668 25.274 23.971 19.313  0.0000  0.0000  0.0000
 1990 360    79    75   3760 33.9689  0.9351 18.8004  5.8404  4.1898 2.76829 10.786 25.467 29.171 23.438  0.0000  0.0000  0.0000
 1990 361    80    76   3946 34.2564  1.0717 18.8889  6.0305  4.7182 2.76621 10.890 25.622 29.703 24.866  0.0000  0.0000  0.0000
 1990 362    81    77   4096 26.6066  0.7146 15.2322  5.0259  2.2321 2.16912 11.003 25.798 19.974 17.215  0.0000  0.0000  0.0000
 1990 363    82    78   4228 26.3525  0.7158 14.9227  4.9603  2.2095 2.25407 11.120 25.988 21.448 16.467  0.0000  0.0000  0.0000
 1990 364    83    79   4401 33.8526  0.9810 18.9564  6.2588  3.3262 3.00350 11.254 26.221 25.093 19.431  6.1805 19.1569 33.7150
 1990 365    84    80   4578 34.8873  1.2507 19.1771  6.2807  4.2697 3.07309 11.359 26.384 27.452 22.220  6.2200 19.9894 32.6358
 1991 001    85    81   4704 31.0234  1.4649 16.5210  5.5205  4.8778 2.48218 11.400 26.395 29.664 24.467  6.3113 20.2336 31.8210
 1991 002    86    82   4829 30.9172  1.6120 16.0836  5.7919  4.9604 2.16513 11.402 26.320 28.010 24.821  6.3688 20.3508 31.3441
 1991 003    87    83   4964 32.5193  1.5563 17.6870  6.1306  4.6653 2.16891 11.422 26.281 27.535 23.341  6.3489 20.4009 31.4183
 1991 004    88    84   5124 34.8556  1.4388 18.3561  7.1083  4.1960 2.26858 11.466 26.301 26.564 21.116  6.3012 20.2837 31.8335
 1991 005    89    85   5280 34.7935  1.5099 18.4343  7.0493  4.2425 2.19885 11.500 26.301 26.269 21.108  6.2736 20.2151 32.0748
 1991 006    90    86   5415 34.7114  1.6001 17.0496  7.3014  4.6101 2.21238 11.529 26.288 27.891 21.726  6.2606 20.2163 32.1546
 1991 007    91    87   5522 33.8017  1.8805 16.4695  6.8533  5.7507 1.87708 11.507 26.153 30.344 24.860  6.2983 20.2741 31.8615
 1991 008    92    88   5628 33.8220  2.0453 16.1110  6.7527  6.6753 1.64426 11.451 25.939 32.282 26.905  6.3628 20.3185 31.4137
 1991 009    93    89   5655 16.9500  1.3337  9.3181  3.2847  3.8717 0.17198 11.392 25.684 23.896 22.820  6.3446 20.3449 31.5011
 1991 010    94    90   5718 32.4681  2.0434 15.3927  7.2555  5.7978 0.82688 11.280 25.330 29.235 25.077  6.3663 20.3729 31.3374
 1991 011    95    91   5800 30.6989  1.8272 15.7024  6.9239  4.5240 0.73713 11.184 25.017 26.192 21.927  6.3391 20.3546 31.5259
 1991 012    96    92   5935 32.9458  1.6559 16.7471  7.7016  3.9764 0.99265 11.124 24.798 24.586 19.783  6.3112 20.1848 31.8705
 1991 013    97    93   5987 26.3181  1.7162 14.2410  6.0752  3.8138 0.06855 10.993 24.390 25.088 20.035  6.2914 20.0860 32.0929
 1991 014    98    94   6084 33.0685  1.8293 16.9475  7.5775  4.6232 0.60531 10.887 24.057 26.180 21.378  6.2775 20.0897 32.1757
 1991 015    99    95   6164 32.6100  1.9157 16.3387  7.3751  5.3930 0.61688 10.772 23.705 29.306 22.998  6.2787 20.1420 32.1160
 1991 016   100    96   6250 23.6616  1.5497 12.7784  5.8870  3.0220 0.00000 10.650 23.319 21.205 17.801  6.2728 19.8420 32.4532
 1991 017   101    97   6328 26.3945  1.3943 13.9915  6.4331  2.8130 0.55034 10.585 23.092 22.038 15.838  6.2837 19.4561 32.7707
 1991 018   102    98   6420 32.4039  1.7081 16.9808  7.6109  4.1494 0.58468 10.490 22.791 25.415 19.431  6.2721 19.4224 32.8768
 1991 019   103    99   6513 30.8232  1.8116 15.8660  7.3297  4.6264 0.24855 10.357 22.388 27.160 20.781  6.2623 19.4736 32.8872
 1991 020   104   100   6570 27.2594  1.8588 14.0210  6.2388  5.0216 0.00000 10.199 21.914 29.370 21.989  6.2584 19.5577 32.8270
 1991 021   105   101   6545 16.9938  1.8659  9.3700  3.8703  3.9123 0.00000 10.039 21.432 23.357 21.422  6.2519 19.6226 32.8027
 1991 022   106   102   6584 31.4706  1.8801 15.2103  7.6606  5.1385 0.00000  9.876 20.936 27.051 22.250  6.2505 19.7021 32.7324
 1991 023   107   103   6615 28.4742  1.9043 14.5003  6.5259  5.2849 0.00000  9.706 20.423 27.499 23.092  6.2551 19.7863 32.6193
 1991 024   108   104   6602 14.0128  1.7606  8.0107  3.0167  3.7711 0.00000  9.548 19.942 23.207 21.416  6.2492 19.8233 32.6192
 1991 025   109   105   6660 28.8723  1.7346 14.1893  7.3613  4.7162 0.00000  9.397 19.458 25.224 21.678  6.2453 19.8631 32.6041
 1991 026   110   106   6724 29.1727  1.6098 15.0086  7.4025  4.2696 0.00000  9.255 19.002 24.659 20.182  6.2388 19.8374 32.6700
 1991 027   111   107   6782 28.4487  1.5178 14.8954  7.4062  3.8917 0.00000  9.118 18.566 23.699 19.079  6.2342 19.7562 32.7801
 1991 028   112   108   6839 28.9561  1.6241 14.6631  7.3248  4.7879 0.00000  8.963 18.090 26.686 21.279  6.2309 19.7844 32.7725
 1991 029   113   109   6861 18.4421  1.5614  9.8762  4.7350  3.9103 0.00000  8.811 17.624 23.923 20.664  6.2265 19.7883 32.7961
 1991 030   114   110   6895 23.6718  1.4527 12.4300  6.3788  3.7369 0.00000  8.671 17.182 21.857 19.458  6.2225 19.7357 32.8735
 1991 031   115   111   6914 19.5379  1.3347 10.5037  5.1107  3.8053 0.03814  8.553 16.785 22.641 20.206  6.2299 19.7023 32.8608
 1991 032   116   112   6951 27.5248  1.4788 13.6557  7.1274  4.7390 0.00000  8.402 16.312 25.975 21.357  6.2275 19.7340 32.8442
 1991 033   117   113   7003 26.2610  1.4558 12.9203  6.8364  5.0845 0.00000  8.244 15.833 27.916 22.153  6.2279 19.7797 32.7958
 1991 034   118   114   7047 25.5703  1.2729 11.9356  6.4878  6.1129 0.07282  8.126 15.440 30.166 24.797  6.2600 19.7978 32.5770
 1991 035   119   115   7096 25.8010  1.2078 11.9949  6.6086  6.0575 0.08130  8.015 15.064 29.617 24.642  6.2887 19.8100 32.3857
 1991 036   120   116   7155 25.2036  1.1751 11.7203  6.4534  5.8881 0.08247  7.902 14.689 28.412 24.440  6.3126 19.8192 32.2268
 1991 037   121   117   7189 20.7094  1.2006 10.0502  5.1359  5.0590 0.05380  7.769 14.282 26.651 23.288  6.3226 19.8323 32.1514
 1991 038   122   118   7252 23.9726  1.0829 11.3608  6.3307  5.0213 0.06687  7.649 13.915 27.371 22.577  6.3311 19.8391 32.0917
 1991 039   123   119   7303 20.5267  1.1545  9.7382  5.1005  5.1018 0.04576  7.504 13.502 27.853 23.525  6.3388 19.8524 32.0304
 1991 040   124   120   7345 18.3149  1.1598  8.6418  4.2958  5.0916 0.03904  7.347 13.074 27.992 24.023  6.3464 19.8637 31.9711
 1991 041   125   121   7404 21.5838  1.0138  9.8191  5.5235  5.1969 0.06235  7.214 12.708 29.190 23.504  6.3554 19.8697 31.9089
 1991 042   126   122   7447 18.8208  1.0921  8.4710  4.5401  5.3949 0.04869  7.055 12.296 28.401 24.969  6.3663 19.8761 31.8345
 1991 043   127   123   7505 19.6401  0.8584  9.1964  5.2781  3.9697 0.07245  6.937 11.985 24.240 20.916  6.3705 19.8563 31.8282
 1991 044   128   124   7555 15.7648  0.7624  7.8534  4.5691  2.7758 0.05792  6.826 11.700 22.202 17.092  6.3760 19.7615 31.8887
 1991 045   129   125   7599 13.6038  0.7015  6.9730  4.1124  2.2569 0.05762  6.720 11.437 19.425 15.602  6.3848 19.6377 31.9572
 1991 046   130   126   7648 14.0447  0.8714  7.7499  3.1934  2.3726 0.00000  6.559 11.068 21.197 15.623  6.3155 19.6703 32.3581
 1991 047   131   127   7470 16.3649  0.0000  8.1011  2.9718  2.9526 0.30580  6.642 10.768 24.393 17.141  6.2332 19.7704 32.7721
 1991 048   132   128   7315 14.2465  0.8935  6.7231  2.6279  4.0167 0.00000  6.368  9.945 28.676 21.890  6.1862 19.8781 32.9581
 1991 049   133   129   7183 10.3956  0.7828  4.6575  1.8305  3.6765 0.00000  6.092  9.210 27.382 22.312  6.1601 19.9413 33.0579
 1991 050   134   130   7069  8.4373  0.6540  3.6186  1.7337  3.3178 0.00000  5.834  8.575 28.071 21.324  6.1606 19.9431 33.0532
 1991 051   135   131   6961  5.4843  0.6178  1.8588  0.5332  3.7839 0.00000  5.564  7.985 29.902 24.442  6.1621 19.9466 33.0402
 1991 052   136   132   6866  2.3390  0.5450  0.0000  0.0000  3.1559 0.00000  5.282  7.461 26.714 23.431  6.1621 19.9466 33.0402
 1991 053   137   133   6796  3.7553  0.4632  1.1149  0.3198  2.8225 0.00000  5.042  7.009 26.568 21.538  6.1623 19.9474 33.0385
 1991 054   138   134   6741  2.8577  0.3738  1.0538  0.3023  1.9612 0.00000  4.838  6.633 22.521 17.635  6.1626 19.9398 33.0442
 1991 055   139   135   6690  2.5109  0.3817  0.1451  0.0416  2.7110 0.00000  4.607  6.266 27.317 21.505  6.1626 19.9399 33.0440
 1991 056   140   136   6645  2.0104  0.3614  0.0000  0.0000  3.2110 0.00000  4.379  5.924 31.036 23.657  6.1626 19.9399 33.0440
 1991 057   141   137   6607  1.5861  0.3484  0.0000  0.0000  3.6754 0.00000  4.153  5.601 32.924 26.010  6.1626 19.9399 33.0440
 1991 058   142   138   6575  0.9214  0.3388  0.0000  0.0000  3.8167 0.00000  3.928  5.291 32.260 27.307  6.1626 19.9399 33.0440

*DSSAT Cropping System Model Ver. 4.6.1.000 -release      OCT 11, 2016; 16:00:59
                                                                                
*RUN   2        : UYSB                      CRGRO046 UYSB0849    1              
 MODEL          : CRGRO046 - Soybean                                            
 EXPERIMENT     : UYSB0849 SN late to create DSS                                
 DATA PATH      :                                                               
 TREATMENT  1   : UYSB                      CRGRO046                            
  
@YEAR DOY   DAS   DAP   TWAD    PHAD    CMAD    CGRD    GRAD    MRAD    CHAD   CL%D   CS%D   TGNN   TGAV    GN%D    GL%D    GC%D
 1991 285     4     0      0  0.0000  0.0000  0.0000  0.0000  0.0000 0.00000  0.000  0.000 26.563 20.509  0.0000  0.0000  0.0000
 1991 286     5     1      0  0.0000  0.0000  0.0000  0.0000  0.0000 0.00000  0.000  0.000 30.991 26.360  0.0000  0.0000  0.0000
 1991 287     6     2      0  0.0000  0.0000  0.0000  0.0000  0.0000 0.00000  0.000  0.000 30.322 26.438  0.0000  0.0000  0.0000
 1991 288     7     3      0  0.0000  0.0000  0.0000  0.0000  0.0000 0.00000  0.000  0.000 22.595 20.492  0.0000  0.0000  0.0000
 1991 289     8     4      0  0.0000  0.0000  0.0000  0.0000  0.0000 0.00000  0.000  0.000 16.852 14.642  0.0000  0.0000  0.0000
 1991 290     9     5      0  0.0000  0.0000  0.0000  0.0000  0.0000 0.00000  0.000  0.000 14.842 12.132  0.0000  0.0000  0.0000
 1991 291    10     6      8  0.0000  0.0003  0.0002  0.0001  0.0000 0.00000  3.966  7.928 19.512 14.840  0.0000  0.0000  0.0000
 1991 292    11     7      9  0.1583  0.0004  0.1005  0.0339  0.0089 0.00000  3.926  7.854 22.543 17.692  0.0000  0.0000  0.0000
 1991 293    12     8     10  0.1842  0.0005  0.1176  0.0381  0.0111 0.00000  3.887  7.785 23.031 18.607  0.0000  0.0000  0.0000
 1991 294    13     9     11  0.2124  0.0007  0.1336  0.0429  0.0168 0.00000  3.839  7.706 27.287 21.791  0.0000  0.0000  0.0000
 1991 295    14    10     12  0.2138  0.0009  0.1322  0.0422  0.0214 0.00000  3.781  7.613 28.388 24.783  0.0000  0.0000  0.0000
 1991 296    15    11     13  0.0876  0.0005  0.0550  0.0190  0.0062 0.00000  3.754  7.558 18.131 15.810  0.0000  0.0000  0.0000
 1991 297    16    12     13  0.0731  0.0004  0.0457  0.0167  0.0047 0.00000  3.736  7.518 16.330 13.758  0.0000  0.0000  0.0000
 1991 298    17    13     14  0.1126  0.0007  0.0712  0.0234  0.0091 0.00000  3.699  7.459 20.426 18.318  0.0000  0.0000  0.0000
 1991 299    18    14     16  0.2977  0.0009  0.1931  0.0592  0.0206 0.00000  3.664  7.454 23.630 20.558  0.0000  0.0000  0.0000
 1991 300    19    15     17  0.1949  0.0009  0.1258  0.0388  0.0143 0.00000  3.630  7.416 22.034 18.961  0.0000  0.0000  0.0000
 1991 301    20    16     18  0.1276  0.0008  0.0812  0.0260  0.0102 0.00000  3.601  7.367 19.337 17.479  0.0000  0.0000  0.0000
 1991 302    21    17     18  0.1109  0.0007  0.0639  0.0295  0.0084 0.00000  3.596  7.307 16.566 15.994  0.0000  0.0000  0.0000
 1991 303    22    18     19  0.1308  0.0008  0.0756  0.0351  0.0095 0.00000  3.594  7.249 17.504 16.289  0.0000  0.0000  0.0000
 1991 304    23    19     20  0.1699  0.0009  0.1017  0.0414  0.0126 0.00000  3.586  7.198 19.814 17.633  0.0000  0.0000  0.0000
 1991 305    24    20     22  0.3586  0.0010  0.2243  0.0812  0.0209 0.00000  3.590  7.216 21.054 17.979  0.0000  0.0000  0.0000
 1991 306    25    21     25  0.4719  0.0010  0.2985  0.1051  0.0245 0.00000  3.601  7.263 20.842 17.229  0.0000  0.0000  0.0000
 1991 307    26    22     28  0.4875  0.0012  0.3097  0.1050  0.0274 0.00000  3.600  7.296 21.361 17.783  0.0000  0.0000  0.0000
 1991 308    27    23     32  0.6780  0.0014  0.4274  0.1485  0.0388 0.00000  3.609  7.338 23.120 18.433  0.0000  0.0000  0.0000
 1991 309    28    24     36  0.7010  0.0018  0.4365  0.1556  0.0454 0.00000  3.612  7.349 24.083 19.538  0.0000  0.0000  0.0000
 1991 310    29    25     39  0.5386  0.0022  0.3340  0.1172  0.0411 0.00000  3.592  7.325 23.144 20.246  0.0000  0.0000  0.0000
 1991 311    30    26     44  0.7974  0.0020  0.5055  0.1767  0.0462 0.00000  3.591  7.351 21.505 18.248  0.0000  0.0000  0.0000
 1991 312    31    27     49  0.7611  0.0020  0.4839  0.1690  0.0410 0.00000  3.590  7.366 20.123 16.902  0.0000  0.0000  0.0000
 1991 313    32    28     55  1.0212  0.0022  0.6558  0.2206  0.0523 0.00000  3.593  7.405 21.820 16.558  0.0000  0.0000  0.0000
 1991 314    33    29     61  0.9899  0.0030  0.6192  0.2188  0.0633 0.00000  3.591  7.397 23.668 18.513  0.0000  0.0000  0.0000
 1991 315    34    30     66  0.7627  0.0022  0.4716  0.1862  0.0366 0.00000  3.604  7.383 17.748 14.561  0.0000  0.0000  0.0000
 1991 316    35    31     72  0.9004  0.0018  0.5682  0.2154  0.0354 0.00000  3.619  7.396 17.232 12.720  0.0000  0.0000  0.0000
 1991 317    36    32     77  0.9481  0.0026  0.5982  0.2195  0.0466 0.00000  3.620  7.396 19.236 14.724  0.0000  0.0000  0.0000
 1991 318    37    33     81  0.6050  0.0033  0.3713  0.1414  0.0417 0.00000  3.606  7.357 18.811 16.017  0.0000  0.0000  0.0000
 1991 319    38    34     87  0.9979  0.0043  0.6264  0.2203  0.0680 0.00000  3.587  7.339 21.058 18.121  0.0000  0.0000  0.0000
 1991 320    39    35     96  1.5076  0.0044  0.9598  0.3303  0.0882 0.00000  3.578  7.359 21.658 17.682  0.0000  0.0000  0.0000
 1991 321    40    36    107  1.6680  0.0047  1.0602  0.3707  0.0937 0.00000  3.574  7.374 21.378 17.187  0.0000  0.0000  0.0000
 1991 322    41    37    121  2.2746  0.0068  1.4255  0.4986  0.1580 0.00000  3.567  7.382 25.105 20.197  0.0000  0.0000  0.0000
 1991 323    42    38    135  2.2752  0.0063  1.4462  0.5070  0.1257 0.00000  3.568  7.395 20.265 17.578  0.0000  0.0000  0.0000
 1991 324    43    39    151  2.5688  0.0079  1.6325  0.5557  0.1607 0.00000  3.559  7.402 22.830 18.746  0.0000  0.0000  0.0000
 1991 325    44    40    171  3.2560  0.0102  2.0494  0.6934  0.2370 0.00000  3.547  7.405 26.388 20.619  0.0000  0.0000  0.0000
 1991 326    45    41    191  3.4917  0.0133  2.0673  0.8098  0.3321 0.00000  3.561  7.357 30.627 23.639  0.0000  0.0000  0.0000
 1991 327    46    42    212  3.8175  0.0172  2.2065  0.8623  0.4499 0.00000  3.558  7.296 32.915 26.931  0.0000  0.0000  0.0000
 1991 328    47    43    221  1.6068  0.0101  0.9785  0.3819  0.1163 0.00000  3.547  7.254 18.376 16.477  0.0000  0.0000  0.0000
 1991 329    48    44    229  1.7062  0.0106  1.0398  0.4053  0.1227 0.00000  3.537  7.215 18.173 16.524  0.0000  0.0000  0.0000
 1991 330    49    45    243  2.6975  0.0000  1.5882  0.4407  0.1592 0.28259  5.555  8.956 19.166 16.442  0.0000  0.0000  0.0000
 1991 331    50    46    272  4.5285  0.0161  3.1211  0.9255  0.2598 0.00000  5.332  8.748 22.367 17.528  0.0000  0.0000  0.0000
 1991 332    51    47    304  5.7574  0.0250  3.0374  1.4429  0.4653 0.00000  5.022  8.530 27.088 22.035  0.0000  0.0000  0.0000
 1991 333    52    48    334  5.4123  0.0281  3.3300  1.1654  0.4579 0.01645  4.915  8.459 24.707 22.341  0.0000  0.0000  0.0000
 1991 334    53    49    383  8.7222  0.0318  4.8335  2.0687  0.7007 0.05231  4.789  8.585 26.754 22.919  0.0000  0.0000  0.0000
 1991 335    54    50    436  9.0476  0.0330  5.2656  2.0625  0.6654 0.08540  4.762  8.840 26.019 21.287  0.0000  0.0000  0.0000
 1991 336    55    51    501 11.1045  0.0410  6.4580  2.4746  0.8968 0.14141  4.797  9.232 28.052 22.604  0.0000  0.0000  0.0000
 1991 337    56    52    551  8.6621  0.0506  4.9503  1.9474  0.7753 0.13845  4.828  9.525 26.222 22.816  0.0000  0.0000  0.0000
 1991 338    57    53    630 13.8207  0.0581  7.8933  3.1618  1.2349 0.26799  4.962 10.102 29.430 23.910  0.0000  0.0000  0.0000
 1991 339    58    54    686 10.1941  0.0686  5.7402  2.3412  0.9352 0.23071  5.052 10.476 26.092 22.866  0.0000  0.0000  0.0000
 1991 340    59    55    778 16.4492  0.0849  9.1649  3.6048  1.6384 0.42839  5.247 11.150 30.071 25.446  0.0000  0.0000  0.0000
 1991 341    60    56    851 13.2428  0.0957  7.3221  2.9192  1.2487 0.39032  5.388 11.632 26.621 23.467  0.0000  0.0000  0.0000
 1991 342    61    57    958 18.9599  0.1092 10.4861  4.2209  1.7131 0.62772  5.620 12.360 28.181 23.844  0.0000  0.0000  0.0000
 1991 343    62    58   1004  9.4134  0.1092  5.2118  2.1234  0.8908 0.34248  5.704 12.632 22.279 20.881  0.0000  0.0000  0.0000
 1991 344    63    59   1127 20.0018  0.1343 12.5433  3.7627  1.7223 0.90009  6.041 13.491 25.905 22.966  0.0000  0.0000  0.0000
 1991 345    64    60   1223 18.6831  0.1565  8.9453  4.5009  1.6647 0.71688  6.144 13.968 26.226 22.534  0.0000  0.0000  0.0000
 1991 346    65    61   1276 11.3525  0.1502  5.5085  2.6837  1.0571 0.46881  6.231 14.217 22.840 20.260  0.0000  0.0000  0.0000
 1991 347    66    62   1419 25.3083  0.1785 14.3306  5.2106  2.0486 1.30217  6.594 15.108 26.628 21.862  0.0000  0.0000  0.0000
 1991 348    67    63   1474 11.2437  0.1762  6.5773  2.2134  1.0407 0.59449  6.699 15.371 21.207 19.344  0.0000  0.0000  0.0000
 1991 349    68    64   1537 12.0760  0.1991  6.5176  2.5543  1.1851 0.59864  6.761 15.589 22.595 20.158  0.0000  0.0000  0.0000
 1991 350    69    65   1677 22.7642  0.2417 14.1114  4.0297  2.0350 1.42278  7.055 16.314 25.596 22.085  0.0000  0.0000  0.0000
 1991 351    70    66   1850 27.7397  0.2919 16.8500  4.9169  2.5473 1.80420  7.368 17.111 26.483 22.936  0.0000  0.0000  0.0000
 1991 352    71    67   1984 28.0340  0.3584 10.8921  6.9593  3.0387 1.16500  7.318 17.335 29.331 24.566  0.0000  0.0000  0.0000
 1991 353    72    68   2120 26.2531  0.3858 15.7506  4.4251  2.9820 1.79512  7.718 18.018 29.379 24.470  0.0000  0.0000  0.0000
 1991 354    73    69   2301 30.7309  0.4345 17.7855  5.3820  3.3936 2.11373  7.984 18.665 29.272 24.614  0.0000  0.0000  0.0000
 1991 355    74    70   2441 28.7555  0.5204 11.7446  6.5428  3.7671 1.32879  7.915 18.789 30.738 26.260  0.0000  0.0000  0.0000
 1991 356    75    71   2490 18.1430  0.5141  6.2675  4.7623  2.5004 0.41272  7.893 18.664 26.196 23.760  0.0000  0.0000  0.0000
 1991 357    76    72   2646 29.4902  0.0000 13.6211  3.9305  3.5534 5.66621  9.291 22.135 28.604 24.842  0.0000  0.0000  0.0000
 1991 358    77    73   2814 31.5733  0.6998 17.0360  5.7124  4.0497 2.19936  9.450 22.421 29.444 25.789  0.0000  0.0000  0.0000
 1991 359    78    74   2964 27.9303  0.6065 15.4886  5.1718  2.8179 1.84642  9.582 22.655 24.509 21.571  0.0000  0.0000  0.0000
 1991 360    79    75   3109 25.4943  0.4923 14.5290  5.0518  2.0625 1.70898  9.708 22.898 21.463 18.130  0.0000  0.0000  0.0000
 1991 361    80    76   3296 31.2849  0.5569 18.2596  5.8255  2.5689 2.34180  9.885 23.265 23.496 18.910  0.0000  0.0000  0.0000
 1991 362    81    77   3490 33.6148  0.6953 19.1597  6.0593  3.2078 2.57745 10.068 23.645 25.042 20.849  0.0000  0.0000  0.0000
 1991 363    82    78   3691 34.9080  0.0000 17.8474  5.6709  3.7670 4.07003 10.656 25.054 27.341 22.073  0.0000  0.0000  0.0000
 1991 364    83    79   3853 30.9714  0.9924 16.9572  5.6811  4.1708 2.17710 10.736 25.153 28.667 24.008  0.0000  0.0000  0.0000
 1991 365    84    80   3982 27.9963  0.9932 14.7501  4.6257  5.0349 1.83965 10.819 25.245 31.412 27.147  0.0000  0.0000  0.0000
 1992 001    85    81   4042 18.7986  1.1753 10.2771  3.6953  3.5196 0.35780 10.741 24.940 26.972 24.212  6.3883 20.5000 31.0730
 1992 002    86    82   4153 27.5354  1.1704 14.6768  5.4559  4.0638 1.23929 10.729 24.827 27.330 23.925  6.3678 20.5000 31.2016
 1992 003    87    83   4298 29.7649  0.7395 16.7509  5.6410  2.8042 1.77787 10.851 25.027 21.996 18.770  6.2616 19.3979 32.9670
 1992 004    88    84   4472 35.4974  1.0696 19.7088  6.4791  3.7871 2.44442 10.983 25.261 25.206 20.941  6.2260 19.6619 32.9255
 1992 005    89    85   4639 35.0791  1.1546 19.0382  6.8690  3.9941 2.36741 11.086 25.422 26.782 21.118  6.2129 19.7989 32.8703
 1992 006    90    86   4749 28.7903  1.2614 15.3825  5.8677  3.7618 1.32866 11.089 25.337 25.656 21.534  6.2104 19.9219 32.7628
 1992 007    91    87   4873 32.1590  1.3827 16.4822  6.6901  4.4749 1.55306 11.083 25.260 27.759 22.848  6.2302 20.0826 32.4788
 1992 008    92    88   4994 33.6532  1.6045 17.5189  6.7143  5.5948 1.45889 11.065 25.122 29.533 25.626  6.3068 20.1956 31.8867
 1992 009    93    89   5082 30.8947  1.6436 15.2200  6.6025  5.4530 0.81641 10.988 24.838 29.518 25.575  6.3568 20.2709 31.4992
 1992 010    94    90   5154 28.8664  1.6824 14.5417  6.2710  5.3039 0.35891 10.865 24.440 28.772 25.510  6.3906 20.3238 31.2350
 1992 011    95    91   5300 34.9412  1.3859 19.3667  7.2923  4.1798 1.39689 10.874 24.380 25.365 21.028  6.3475 20.2503 31.5775
 1992 012    96    92   5393 32.3758  1.4383 16.3706  7.5223  4.2091 0.66935 10.811 24.135 26.337 21.140  6.3185 20.2080 31.8015
 1992 013    97    93   5495 34.6088  1.5146 17.7534  7.9781  4.5765 0.64625 10.737 23.864 26.319 21.875  6.3002 20.2180 31.9055
 1992 014    98    94   5579 29.5866  1.5286 15.2267  7.0589  4.3301 0.00000 10.603 23.432 26.302 21.822  6.2857 20.2232 31.9913
 1992 015    99    95   5643 23.2777  1.0581 12.5316  6.0049  2.2192 0.00000 10.524 23.139 18.867 15.355  6.3065 19.5410 32.5432
 1992 016   100    96   5737 26.7582  1.1301 14.2442  6.7590  2.6590 0.00000 10.437 22.822 21.424 16.227  6.3118 19.1280 32.9231
 1992 017   101    97   5867 33.5001  1.4060 18.4229  7.6459  4.0776 0.40302 10.357 22.530 25.411 19.928  6.2937 19.1717 32.9924
 1992 018   102    98   5955 32.8721  1.5394 16.4949  7.8472  4.8620 0.11062 10.232 22.120 27.988 21.932  6.2849 19.3094 32.9103
 1992 019   103    99   5994 28.5903  1.6386 14.2890  6.6613  5.2470 0.00000 10.082 21.646 29.116 23.669  6.2916 19.4550 32.7222
 1992 020   104   100   6049 32.3562  1.7032 15.4159  7.5414  6.3719 0.00000  9.923 21.144 31.198 25.716  6.3189 19.5791 32.4277
 1992 021   105   101   6108 29.7941  1.6867 14.6583  7.0693  5.7838 0.00000  9.762 20.638 28.885 24.944  6.3352 19.6909 32.2141
 1992 022   106   102   6121 30.3885  1.6075 14.8882  7.2988  5.4805 0.00000  9.610 20.150 28.317 23.946  6.3386 19.7839 32.0999
 1992 023   107   103   6202 30.1702  1.4668 15.0688  7.6011  4.7038 0.00000  9.470 19.695 26.313 21.942  6.3250 19.8420 32.1266
 1992 024   108   104   6253 24.8018  1.4783 12.6370  6.1227  4.5699 0.00000  9.328 19.230 26.289 22.384  6.3164 19.9008 32.1218
 1992 025   109   105   6268 21.3842  1.5702 10.8502  5.0751  5.0889 0.00000  9.174 18.727 27.230 24.472  6.3262 19.9627 31.9987
 1992 026   110   106   6304 27.2683  1.5387 13.2462  6.6679  5.6685 0.00000  9.023 18.222 27.988 24.872  6.3381 20.0158 31.8712
 1992 027   111   107   6289 25.7057  1.4575 12.7840  6.3358  5.2333 0.00000  8.877 17.733 27.229 23.970  6.3409 20.0625 31.8070
 1992 028   112   108   6307 22.6604  1.2871 10.9970  5.5247  5.6011 0.05167  8.764 17.313 28.726 25.467  6.3733 20.0698 31.5973
 1992 029   113   109   6321 21.3595  1.2524 10.5269  5.0505  5.4776 0.05039  8.654 16.893 28.205 25.412  6.3988 20.0749 31.4328
 1992 030   114   110   6303 14.3230  1.3671  7.7149  2.7922  4.9908 0.00250  8.506 16.388 28.001 25.459  6.4053 20.0983 31.3684
 1992 031   115   111   6318 21.5341  1.1806 10.2904  4.9991  5.9584 0.05155  8.396 15.968 29.744 26.558  6.4327 20.0994 31.1962
 1992 032   116   112   6360 22.0135  1.1026 10.4461  5.1285  5.8014 0.05547  8.293 15.567 29.585 26.005  6.4541 20.0988 31.0628
 1992 033   117   113   6415 24.2787  1.1730 11.3271  5.5148  6.3190 0.03320  8.161 15.113 29.679 26.851  6.4733 20.1108 30.9309
 1992 034   118   114   6452 17.5894  1.0850  8.7819  3.8564  4.8475 0.02794  8.034 14.680 26.446 24.299  6.4754 20.1181 30.9103
 1992 035   119   115   6511 21.5560  1.0214 10.3828  5.0766  5.0441 0.03469  7.910 14.269 26.930 23.995  6.4765 20.1252 30.8966
 1992 036   120   116   6572 22.4338  0.9805 10.4114  5.4364  5.4954 0.04765  7.791 13.874 28.012 25.042  6.4850 20.1263 30.8427
 1992 037   121   117   6634 22.3896  0.9276 10.2961  5.6434  5.3593 0.05161  7.672 13.496 28.137 24.738  6.4919 20.1256 30.8000
 1992 038   122   118   6693 22.3282  0.8970  9.8960  5.5886  5.7991 0.05853  7.554 13.127 29.817 25.881  6.5042 20.1218 30.7269
 1992 039   123   119   6743 20.8623  0.9016  8.9510  5.0091  6.1386 0.05364  7.423 12.746 31.424 27.024  6.5186 20.1184 30.6405
 1992 040   124   120   6761 13.0136  1.0125  6.1988  2.7382  4.5773 0.00091  7.238 12.270 27.740 24.629  6.5162 20.1284 30.6454
 1992 041   125   121   6770 10.0792  0.9284  5.0757  1.9834  3.6986 0.00000  7.060 11.825 24.728 22.583  6.5106 20.1346 30.6742
 1992 042   126   122   6797 13.1281  0.8447  6.2348  3.0312  3.8574 0.01672  6.898 11.423 25.080 22.577  6.5066 20.1365 30.6971
 1992 043   127   123   6853 19.2611  0.7227  8.5960  4.9188  4.3659 0.05018  6.768 11.096 25.930 23.071  6.5067 20.1326 30.7002
 1992 044   128   124   6872 11.7461  0.8847  5.2181  2.1639  4.4130 0.00434  6.573 10.652 27.965 24.713  6.5059 20.1388 30.6995
 1992 045   129   125   6877  8.3357  0.8077  3.9970  1.4337  3.3234 0.00000  6.386 10.237 23.608 21.929  6.5015 20.1410 30.7249
 1992 046   130   126   6918 16.3639  0.7735  6.9197  3.8221  4.7917 0.02051  6.208  9.847 28.609 25.000  6.5032 20.1444 30.7105
 1992 047   131   127   6963 16.6117  0.8045  7.2744  3.0649  4.9196 0.00000  6.005  9.421 29.270 25.341  6.4369 20.2899 30.9796
 1992 048   132   128   6814 16.0819  0.7590  7.1235  2.9002  4.6959 0.00000  5.729  8.530 28.569 24.891  6.3707 20.4323 31.2506
 1992 049   133   129   6689 13.0075  0.6412  5.1586  2.2649  4.7890 0.00000  5.458  7.749 30.636 26.172  6.3357 20.5129 31.3890
 1992 050   134   130   6576  9.9993  0.5602  3.3523  1.7072  5.0021 0.00000  5.187  7.057 31.829 28.080  6.3370 20.5196 31.3743
 1992 051   135   131   6479  7.8221  0.4796  2.2968  1.0271  4.8227 0.00000  4.924  6.452 32.293 28.474  6.3404 20.5195 31.3533
 1992 052   136   132   6397  4.2994  0.3649  1.4375  0.4505  2.7946 0.00000  4.702  5.961 26.596 21.850  6.3398 20.5182 31.3584
 1992 053   137   133   6314  1.4000  0.2746  0.0853  0.0245  1.5736 0.00000  4.507  5.569 18.304 16.663  6.3397 20.5171 31.3595
 1992 054   138   134   6250  3.0482  0.2873  0.6234  0.1788  2.5546 0.00000  4.295  5.189 24.864 21.726  6.3395 20.5165 31.3618
 1992 055   139   135   6204  2.8131  0.2548  0.5115  0.1467  2.4281 0.00000  4.094  4.855 24.862 21.260  6.3392 20.5157 31.3642
 1992 056   140   136   6165  2.1515  0.2223  0.2020  0.0579  2.1233 0.00000  3.906  4.566 23.749 19.899  6.3391 20.5149 31.3656
 1992 057   141   137   6131  1.6761  0.2133  0.0000  0.0000  2.4505 0.00000  3.715  4.297 26.914 21.604  6.3391 20.5149 31.3656
 1992 058   142   138   6099  1.1744  0.1850  0.0000  0.0000  1.9584 0.00000  3.545  4.066 23.498 19.330  6.3391 20.5149 31.3656
 1992 059   143   139   6076  0.8306  0.1537  0.0000  0.0000  1.4068 0.00000  3.399  3.873 20.460 15.758  6.3391 20.5149 31.3656

*DSSAT Cropping System Model Ver. 4.6.1.000 -release      OCT 11, 2016; 16:00:59
                                                                                
*RUN   3        : UYSB                      CRGRO046 UYSB0849    1              
 MODEL          : CRGRO046 - Soybean                                            
 EXPERIMENT     : UYSB0849 SN late to create DSS                                
 DATA PATH      :                                                               
 TREATMENT  1   : UYSB                      CRGRO046                            
  
@YEAR DOY   DAS   DAP   TWAD    PHAD    CMAD    CGRD    GRAD    MRAD    CHAD   CL%D   CS%D   TGNN   TGAV    GN%D    GL%D    GC%D
 1992 285     4     0      0  0.0000  0.0000  0.0000  0.0000  0.0000 0.00000  0.000  0.000 24.408 17.998  0.0000  0.0000  0.0000
 1992 286     5     1      0  0.0000  0.0000  0.0000  0.0000  0.0000 0.00000  0.000  0.000 22.207 18.075  0.0000  0.0000  0.0000
 1992 287     6     2      0  0.0000  0.0000  0.0000  0.0000  0.0000 0.00000  0.000  0.000 22.982 16.925  0.0000  0.0000  0.0000
 1992 288     7     3      0  0.0000  0.0000  0.0000  0.0000  0.0000 0.00000  0.000  0.000 26.723 20.273  0.0000  0.0000  0.0000
 1992 289     8     4      0  0.0000  0.0000  0.0000  0.0000  0.0000 0.00000  0.000  0.000 29.054 23.351  0.0000  0.0000  0.0000
 1992 290     9     5      0  0.0000  0.0000  0.0000  0.0000  0.0000 0.00000  0.000  0.000 19.769 18.057  0.0000  0.0000  0.0000
 1992 291    10     6      8  0.0000  0.0004  0.0002  0.0001  0.0000 0.00000  3.958  7.913 19.804 16.522  0.0000  0.0000  0.0000
 1992 292    11     7      8  0.1189  0.0003  0.0757  0.0268  0.0053 0.00000  3.933  7.862 19.128 14.241  0.0000  0.0000  0.0000
 1992 293    12     8      9  0.0662  0.0003  0.0409  0.0150  0.0043 0.00000  3.901  7.795 18.504 15.435  0.0000  0.0000  0.0000
 1992 294    13     9      9  0.1226  0.0003  0.0794  0.0278  0.0055 0.00000  3.885  7.753 17.353 14.391  0.0000  0.0000  0.0000
 1992 295    14    10     10  0.1394  0.0003  0.0894  0.0304  0.0059 0.00000  3.865  7.728 18.935 13.295  0.0000  0.0000  0.0000
 1992 296    15    11     11  0.1845  0.0004  0.1194  0.0380  0.0095 0.00000  3.838  7.694 21.979 15.945  0.0000  0.0000  0.0000
 1992 297    16    12     13  0.2452  0.0007  0.1576  0.0484  0.0163 0.00000  3.800  7.648 25.026 19.562  0.0000  0.0000  0.0000
 1992 298    17    13     15  0.2653  0.0009  0.1672  0.0509  0.0230 0.00000  3.754  7.586 28.485 22.663  0.0000  0.0000  0.0000
 1992 299    18    14     15  0.1555  0.0010  0.0970  0.0298  0.0157 0.00000  3.704  7.500 25.101 21.957  0.0000  0.0000  0.0000
 1992 300    19    15     17  0.3278  0.0011  0.2098  0.0633  0.0265 0.00000  3.663  7.468 25.914 22.305  0.0000  0.0000  0.0000
 1992 301    20    16     20  0.3593  0.0013  0.2287  0.0692  0.0311 0.00000  3.624  7.437 27.917 22.842  0.0000  0.0000  0.0000
 1992 302    21    17     20  0.0849  0.0003  0.0546  0.0186  0.0047 0.00000  3.618  7.422 13.999 10.817  0.0000  0.0000  0.0000
 1992 303    22    18     22  0.2492  0.0006  0.1657  0.0513  0.0111 0.00000  3.609  7.431 19.277 12.841  0.0000  0.0000  0.0000
 1992 304    23    19     23  0.2723  0.0007  0.1676  0.0686  0.0132 0.00000  3.630  7.406 19.563 14.056  0.0000  0.0000  0.0000
 1992 305    24    20     25  0.3434  0.0009  0.2132  0.0835  0.0179 0.00000  3.643  7.388 21.338 15.258  0.0000  0.0000  0.0000
 1992 306    25    21     28  0.4764  0.0013  0.2965  0.1106  0.0297 0.00000  3.646  7.374 24.487 18.012  0.0000  0.0000  0.0000
 1992 307    26    22     32  0.5691  0.0018  0.3496  0.1274  0.0459 0.00000  3.636  7.349 27.724 21.571  0.0000  0.0000  0.0000
 1992 308    27    23     34  0.3817  0.0011  0.2404  0.0904  0.0188 0.00000  3.637  7.342 18.307 14.586  0.0000  0.0000  0.0000
 1992 309    28    24     35  0.2478  0.0005  0.1548  0.0620  0.0092 0.00000  3.647  7.343 13.012 10.293  0.0000  0.0000  0.0000
 1992 310    29    25     37  0.2587  0.0006  0.1643  0.0618  0.0096 0.00000  3.651  7.347 14.445  9.542  0.0000  0.0000  0.0000
 1992 311    30    26     39  0.4014  0.0009  0.2578  0.0913  0.0164 0.00000  3.653  7.361 17.151 11.997  0.0000  0.0000  0.0000
 1992 312    31    27     43  0.5405  0.0013  0.3454  0.1215  0.0258 0.00000  3.650  7.372 19.485 14.402  0.0000  0.0000  0.0000
 1992 313    32    28     47  0.7346  0.0019  0.4601  0.1689  0.0417 0.00000  3.651  7.374 22.809 16.759  0.0000  0.0000  0.0000
 1992 314    33    29     53  0.9504  0.0028  0.5897  0.2109  0.0689 0.00000  3.642  7.373 27.006 19.917  0.0000  0.0000  0.0000
 1992 315    34    30     56  0.4370  0.0029  0.2676  0.0969  0.0386 0.00000  3.612  7.318 21.156 19.007  0.0000  0.0000  0.0000
 1992 316    35    31     62  1.0795  0.0039  0.6706  0.2307  0.0903 0.00000  3.588  7.318 26.674 22.269  0.0000  0.0000  0.0000
 1992 317    36    32     70  1.3146  0.0043  0.8188  0.2786  0.1095 0.00000  3.568  7.330 27.512 22.427  0.0000  0.0000  0.0000
 1992 318    37    33     79  1.4734  0.0044  0.9108  0.3343  0.1056 0.00000  3.572  7.335 25.806 20.433  0.0000  0.0000  0.0000
 1992 319    38    34     87  1.3741  0.0056  0.8336  0.3014  0.1286 0.00000  3.557  7.309 29.032 22.943  0.0000  0.0000  0.0000
 1992 320    39    35     97  1.7153  0.0058  1.1138  0.3501  0.1311 0.00000  3.570  7.320 24.361 21.423  0.0000  0.0000  0.0000
 1992 321    40    36    107  1.5407  0.0041  0.9631  0.3490  0.0779 0.00000  3.572  7.338 19.166 15.978  0.0000  0.0000  0.0000
 1992 322    41    37    116  1.5696  0.0039  1.0085  0.3399  0.0744 0.00000  3.574  7.361 19.592 14.648  0.0000  0.0000  0.0000
 1992 323    42    38    128  1.8977  0.0048  1.2154  0.4052  0.0984 0.00000  3.575  7.382 21.596 15.612  0.0000  0.0000  0.0000
 1992 324    43    39    144  2.5837  0.0079  1.6186  0.5503  0.1797 0.00000  3.571  7.384 25.773 19.718  0.0000  0.0000  0.0000
 1992 325    44    40    159  2.4777  0.0104  1.5286  0.5175  0.2155 0.00000  3.552  7.357 27.774 21.970  0.0000  0.0000  0.0000
 1992 326    45    41    165  1.1528  0.0082  0.7126  0.2528  0.0947 0.00000  3.531  7.310 20.158 17.435  0.0000  0.0000  0.0000
 1992 327    46    42    178  2.0381  0.0063  1.2995  0.4621  0.0999 0.00000  3.535  7.318 18.028 14.695  0.0000  0.0000  0.0000
 1992 328    47    43    190  1.9381  0.0058  1.2469  0.4287  0.0935 0.00000  3.534  7.330 18.661 13.572  0.0000  0.0000  0.0000
 1992 329    48    44    209  3.1823  0.0110  1.9429  0.7612  0.2110 0.00000  3.553  7.309 23.969 18.629  0.0000  0.0000  0.0000
 1992 330    49    45    229  3.4298  0.0133  2.0866  0.8161  0.2415 0.00000  3.562  7.282 22.744 19.697  0.0000  0.0000  0.0000
 1992 331    50    46    252  3.8215  0.0151  2.3162  0.9043  0.2841 0.00000  3.566  7.255 24.411 20.218  0.0000  0.0000  0.0000
 1992 332    51    47    285  5.5823  0.0165  3.4021  1.3260  0.3831 0.00000  3.584  7.258 25.261 20.136  0.0000  0.0000  0.0000
 1992 333    52    48    316  5.3673  0.0196  3.2514  1.2649  0.4043 0.00000  3.586  7.241 25.778 20.688  0.0000  0.0000  0.0000
 1992 334    53    49    350  5.9299  0.0257  3.5297  1.3702  0.5493 0.00000  3.577  7.206 28.057 23.433  0.0000  0.0000  0.0000
 1992 335    54    50    391  7.2282  0.0290  4.5080  1.5674  0.6395 0.00000  3.604  7.184 26.745 23.412  0.0000  0.0000  0.0000
 1992 336    55    51    444  8.9258  0.0237  5.3091  2.1361  0.5380 0.00498  3.617  7.235 22.566 19.017  0.0000  0.0000  0.0000
 1992 337    56    52    501  9.4467  0.0226  5.8057  2.1950  0.5052 0.02751  3.670  7.394 22.660 16.961  0.0000  0.0000  0.0000
 1992 338    57    53    569 11.1374  0.0306  6.8405  2.5656  0.6954 0.06223  3.760  7.648 25.021 18.677  0.0000  0.0000  0.0000
 1992 339    58    54    646 13.2331  0.0437  7.8168  3.1046  1.0017 0.11174  3.866  7.989 27.006 21.414  0.0000  0.0000  0.0000
 1992 340    59    55    713 11.4621  0.0509  6.7289  2.6675  0.9121 0.13133  3.960  8.298 26.269 21.108  0.0000  0.0000  0.0000
 1992 341    60    56    805 14.8412  0.0700  9.5329  2.9375  1.4093 0.24322  4.152  8.800 28.167 24.332  0.0000  0.0000  0.0000
 1992 342    61    57    890 15.8184  0.0680  7.9491  4.0052  1.1831 0.24778  4.243  9.213 24.928 20.986  0.0000  0.0000  0.0000
 1992 343    62    58    992 17.9278  0.0805  9.9784  4.1276  1.3971 0.36634  4.410  9.751 26.149 21.454  0.0000  0.0000  0.0000
 1992 344    63    59   1090 17.5261  0.0957  9.7937  4.1121  1.4292 0.41615  4.588 10.255 25.338 21.682  0.0000  0.0000  0.0000
 1992 345    64    60   1199 19.6082  0.1182 11.0152  4.4828  1.7246 0.53641  4.794 10.815 26.072 22.775  0.0000  0.0000  0.0000
 1992 346    65    61   1320 21.1959  0.1228 11.9570  4.8783  1.6657 0.65095  5.011 11.413 25.060 21.190  0.0000  0.0000  0.0000
 1992 347    66    62   1464 25.2400  0.1348 14.2045  5.8310  1.8555 0.85111  5.261 12.093 25.448 20.467  0.0000  0.0000  0.0000
 1992 348    67    63   1619 27.1544  0.1796 15.4058  5.9683  2.4175 1.01671  5.515 12.760 28.162 22.680  0.0000  0.0000  0.0000
 1992 349    68    64   1776 27.7633  0.2067 15.9695  5.8844  2.4024 1.16971  5.786 13.418 26.709 22.159  0.0000  0.0000  0.0000
 1992 350    69    65   1953 29.2393  0.1920 17.4811  6.0779  2.0934 1.33446  6.047 14.084 25.605 19.155  0.0000  0.0000  0.0000
 1992 351    70    66   2117 28.0291  0.2558 16.3739  5.6950  2.4896 1.32679  6.255 14.613 27.499 21.300  0.0000  0.0000  0.0000
 1992 352    71    67   2258 25.3692  0.3225 14.3630  5.0931  2.5963 1.27831  6.420 15.025 26.283 22.736  0.0000  0.0000  0.0000
 1992 353    72    68   2445 32.7008  0.3416 18.3743  6.7151  3.1633 1.73640  6.636 15.586 28.286 22.589  0.0000  0.0000  0.0000
 1992 354    73    69   2586 25.9003  0.3882 13.4962  5.6978  2.9116 1.31453  6.711 15.875 28.646 22.842  0.0000  0.0000  0.0000
 1992 355    74    70   2784 35.7189  0.4783 20.4417  6.4976  4.5050 2.09040  6.965 16.436 31.713 26.088  0.0000  0.0000  0.0000
 1992 356    75    71   2980 33.1396  0.4933 19.7691  5.8560  3.9164 2.06325  7.167 16.918 30.180 24.197  0.0000  0.0000  0.0000
 1992 357    76    72   3080 20.1707  0.5675 11.4188  3.5952  3.0391 1.16697  7.242 17.050 27.964 24.095  0.0000  0.0000  0.0000
 1992 358    77    73   3180 20.4487  0.6072 11.4841  3.6036  3.1263 1.16679  7.313 17.171 26.782 24.310  0.0000  0.0000  0.0000
 1992 359    78    74   3387 36.2262  0.5940 20.9691  6.0628  4.0046 2.52555  7.554 17.761 27.410 23.397  0.0000  0.0000  0.0000
 1992 360    79    75   3571 33.4166  0.5762 18.5707  6.4077  3.3848 2.15560  7.730 18.173 25.763 21.356  0.0000  0.0000  0.0000
 1992 361    80    76   3814 39.2977  0.0000 19.6775  5.6361  3.5519 6.43771  8.722 20.836 25.510 20.422  0.0000  0.0000  0.0000
 1992 362    81    77   4049 39.4145  0.0000 21.6734  6.5504  3.6980 3.63491  9.151 21.865 25.949 20.431  0.0000  0.0000  0.0000
 1992 363    82    78   4277 39.2740  0.0000 20.2384  6.0240  4.6363 4.57623  9.714 23.258 29.481 22.709  0.0000  0.0000  0.0000
 1992 364    83    79   4355 18.6250  0.0000  8.8360  2.8902  3.2640 1.84063 10.016 23.943 24.813 22.699  0.0000  0.0000  0.0000
 1992 365    84    80   4434 18.6049  0.9831 10.4242  3.5726  2.9827 0.54957  9.967 23.738 22.806 21.480  0.0000  0.0000  0.0000
 1992 366    85    81   4476 16.1098  0.8659  8.8015  3.3725  2.4772 0.14687  9.903 23.507 20.066 19.708  0.0000  0.0000  0.0000
 1993 001    86    82   4522 16.9953  0.9095  9.1838  3.4431  2.6946 0.12098  9.832 23.259 20.986 20.413  0.0000  0.0000  0.0000
 1993 002    87    83   4572 17.3271  0.9184  9.3698  3.4872  2.7803 0.05373  9.758 22.998 21.479 20.619  0.0000  0.0000  0.0000
 1993 003    88    84   4622 17.4710  0.9254  9.4686  3.5021  2.8554 0.00012  9.678 22.724 21.606 20.817  0.0000  0.0000  0.0000
 1993 004    89    85   4720 26.4484  1.1505 14.0536  4.7895  4.4746 1.00873  9.662 22.600 27.681 24.419  0.0000  0.0000  0.0000
 1993 005    90    86   4874 34.8672  1.2962 18.3123  5.8337  5.7901 2.06642  9.729 22.674 29.553 26.219  6.5658 20.5000 29.9636
 1993 006    91    87   5047 39.1107  1.3217 20.3881  6.8805  6.1587 2.52883  9.834 22.847 30.349 25.940  6.5491 20.5000 30.0681
 1993 007    92    88   5120 23.4704  1.3224 12.7420  4.6868  4.2943 0.29173  9.749 22.546 26.273 23.799  6.4360 20.5000 30.7753
 1993 008    93    89   5250 31.9888  1.3116 17.2972  6.4078  4.7251 0.98778  9.727 22.409 25.725 23.395  6.3805 20.4977 31.1241
 1993 009    94    90   5413 39.3740  1.2149 20.6211  7.7258  4.6083 2.28724  9.831 22.598 25.431 21.524  6.3163 20.3737 31.6492
 1993 010    95    91   5566 39.4736  1.3937 19.6362  7.8921  5.6364 1.87018  9.883 22.651 29.062 23.650  6.3241 20.4174 31.5572
 1993 011    96    92   5703 39.6151  1.5269 19.1418  8.2812  6.2931 1.81120  9.917 22.661 30.227 24.994  6.3640 20.4421 31.2831
 1993 012    97    93   5826 39.3114  1.6602 18.7375  8.2027  6.8762 1.58158  9.919 22.590 30.927 26.232  6.4197 20.4580 30.9186
 1993 013    98    94   5880 33.8031  1.7476 16.4080  7.0388  6.8247 0.80975  9.843 22.325 31.332 26.924  6.4726 20.4687 30.5778
 1993 014    99    95   5948 28.8196  1.7749 14.2332  6.4188  6.0884 0.00000  9.690 21.859 29.041 26.245  6.4988 20.4773 30.4050
 1993 015   100    96   6017 36.4778  1.7834 17.3087  8.2164  6.9330 0.37128  9.571 21.479 29.671 26.696  6.5241 20.4826 30.2416
 1993 016   101    97   6081 28.6086  1.7249 13.9948  6.4865  5.7454 0.00000  9.423 21.020 27.614 25.285  6.5146 20.4866 30.2971
 1993 017   102    98   6183 33.4092  1.3353 16.8626  8.2112  4.0478 0.00000  9.319 20.667 22.385 19.984  6.4454 20.2817 30.9343
 1993 018   103    99   6289 31.8757  1.2237 16.4437  8.0789  3.5910 0.00000  9.228 20.345 23.008 18.313  6.4059 19.9565 31.5066
 1993 019   104   100   6410 35.3108  1.4301 18.6641  8.5099  4.7157 0.00000  9.114 19.964 25.006 21.100  6.3708 19.9651 31.7171
 1993 020   105   101   6523 37.1231  1.5686 18.2415  9.0275  5.8933 0.00000  8.984 19.542 28.245 23.408  6.3631 20.0429 31.6878
 1993 021   106   102   6640 36.9540  1.5900 18.8636  8.5322  6.3612 0.00000  8.851 19.112 29.693 24.212  6.3664 20.1033 31.6065
 1993 022   107   103   6727 36.6116  1.7004 17.3159  8.5228  7.4665 0.00000  8.703 18.647 31.351 26.550  6.3939 20.1511 31.3867
 1993 023   108   104   6793 33.6675  1.7420 15.6240  7.5960  8.0274 0.00000  8.549 18.165 32.630 28.044  6.4311 20.1900 31.1155
 1993 024   109   105   6851 34.9921  1.7391 15.8955  7.9274  8.5207 0.00000  8.391 17.676 33.095 28.689  6.4687 20.2230 30.8479
 1993 025   110   106   6861 24.9322  1.5798 12.4546  6.0686  5.5970 0.00000  8.249 17.227 26.683 24.319  6.4602 20.2561 30.8677
 1993 026   111   107   6916 31.5722  1.5422 14.8875  7.7916  6.6230 0.00000  8.110 16.777 29.845 25.332  6.4633 20.2839 30.8205
 1993 027   112   108   6916 16.2587  1.3652  9.0347  3.5569  4.2739 0.00449  7.991 16.374 23.844 22.160  6.4445 20.2848 30.9370
 1993 028   113   109   6981 32.9624  1.4732 15.4779  8.3626  6.4624 0.00000  7.857 15.926 28.198 24.868  6.4475 20.3027 30.9005
 1993 029   114   110   7046 29.7463  1.3753 14.5460  7.6774  5.6457 0.00000  7.731 15.498 26.781 23.415  6.4352 20.3204 30.9598
 1993 030   115   111   7131 33.3390  1.3480 15.8816  8.7233  6.1240 0.00000  7.603 15.068 27.824 23.814  6.4272 20.3379 30.9923
 1993 031   116   112   7166 20.0547  1.2232 10.5508  4.6303  4.8655 0.01863  7.492 14.681 24.551 22.904  6.4215 20.3368 31.0288
 1993 032   117   113   7229 28.7663  0.9627 13.6067  7.3455  5.9606 0.10432  7.437 14.417 27.384 24.055  6.4412 20.3016 30.9409
 1993 033   118   114   7297 29.7282  0.9722 14.0955  7.5949  5.8929 0.09018  7.372 14.134 26.852 23.702  6.4523 20.2784 30.8947
 1993 034   119   115   7371 27.8609  0.9480 13.2917  6.9657  5.5691 0.08158  7.302 13.848 26.534 23.098  6.4572 20.2595 30.8831
 1993 035   120   116   7457 29.6971  0.8396 14.1937  8.0950  5.0950 0.08777  7.243 13.597 25.917 21.443  6.4556 20.2181 30.9345
 1993 036   121   117   7543 29.0597  0.8435 13.1503  7.5645  6.2492 0.10914  7.186 13.349 28.640 24.239  6.4702 20.1967 30.8643
 1993 037   122   118   7614 25.5195  0.9770 11.7354  6.4736  6.0367 0.06074  7.085 13.020 29.219 24.282  6.4762 20.1918 30.8319
 1993 038   123   119   7652 15.0504  0.9849  8.0555  3.6850  3.5740 0.00661  6.959 12.652 22.050 19.689  6.4672 20.1603 30.9194
 1993 039   124   120   7663  9.1830  0.8943  5.5396  2.0542  2.5848 0.00000  6.836 12.309 18.893 17.140  6.4629 20.0959 31.0110
 1993 040   125   121   7709 15.2034  0.8128  8.0904  4.1071  2.9040 0.02345  6.730 12.005 20.128 17.482  6.4597 20.0102 31.1170
 1993 041   126   122   7786 23.0240  0.6595 10.9855  6.4426  3.8408 0.08293  6.665 11.790 24.222 19.109  6.4600 19.9418 31.1830
 1993 042   127   123   7864 25.0715  0.6967 11.2419  6.7297  4.9861 0.09531  6.591 11.563 27.343 22.052  6.4635 19.9300 31.1730
 1993 043   128   124   7929 22.9419  0.7774 10.0297  5.8974  5.4335 0.07855  6.492 11.289 28.653 23.649  6.4694 19.9288 31.1374
 1993 044   129   125   7985 19.7993  0.7813  8.9426  5.0926  4.5721 0.06257  6.381 11.000 25.875 22.158  6.4702 19.9246 31.1366
 1993 045   130   126   8043 20.7084  0.7514  9.0249  5.3220  4.9543 0.06957  6.271 10.723 27.925 22.887  6.4731 19.9227 31.1206
 1993 046   131   127   8105 21.0059  0.6964  9.1460  5.5358  4.6843 0.07752  6.168 10.470 26.881 22.236  6.4755 19.9160 31.1123
 1993 047   132   128   8112 10.6329  0.9101  5.0464  2.2811  3.7342 0.00000  5.992 10.077 24.511 21.403  6.4711 19.9193 31.1362
 1993 048   133   129   8118 10.0124  0.8563  4.6204  2.0715  3.6927 0.00945  5.823  9.707 23.638 21.567  6.4684 19.9206 31.1517
 1993 049   134   130   8154 15.4796  0.8411  6.5194  3.5201  4.8185 0.02221  5.655  9.345 27.774 23.882  6.4688 19.9269 31.1431
 1993 050   135   131   8182 13.2092  0.8836  5.6193  2.2959  4.5732 0.00000  5.463  8.947 26.548 23.799  6.4453 19.9810 31.2361
 1993 051   136   132   7968 12.5513  0.7842  5.7153  2.1862  3.7150 0.00000  5.226  8.041 24.184 21.293  6.4084 20.0501 31.3975
 1993 052   137   133   7804 10.7516  0.5818  5.0338  2.4958  2.5492 0.00000  5.021  7.293 21.372 17.519  6.3887 20.0513 31.5195
 1993 053   138   134   7676  9.9599  0.5155  4.4067  2.0558  2.8473 0.00000  4.813  6.633 23.913 18.990  6.3676 20.0746 31.6278
 1993 054   139   135   7564  7.8835  0.4471  3.2803  1.6930  2.7747 0.00000  4.609  6.060 24.042 19.441  6.3637 20.0705 31.6561
 1993 055   140   136   7469  6.2636  0.3989  2.3869  1.1566  2.8445 0.00000  4.406  5.556 24.409 20.451  6.3625 20.0682 31.6661
 1993 056   141   137   7385  4.2067  0.3537  1.3514  0.4348  2.7883 0.00000  4.208  5.115 24.818 20.897  6.3618 20.0677 31.6708
 1993 057   142   138   7315  3.5328  0.3167  0.8263  0.2370  2.8156 0.00000  4.012  4.729 25.505 21.335  6.3615 20.0678 31.6731
 1993 058   143   139   7252  2.7034  0.2927  0.0000  0.0000  3.1608 0.00000  3.810  4.386 28.306 22.997  6.3615 20.0678 31.6731
 1993 059   144   140   7199  1.8728  0.2839  0.0000  0.0000  3.9028 0.00000  3.604  4.068 30.968 26.516  6.3615 20.0678 31.6731
 1993 060   145   141   7157  1.4144  0.2273  0.0000  0.0000  2.4303 0.00000  3.432  3.810 23.942 20.595  6.3615 20.0678 31.6731
 1993 061   146   142   7122  1.1360  0.1921  0.0000  0.0000  1.8937 0.00000  3.282  3.592 21.825 17.767  6.3615 20.0678 31.6731
 1993 062   147   143   7093  1.0343  0.1812  0.0000  0.0000  1.9843 0.00000  3.135  3.395 22.937 18.239  6.3615 20.0678 31.6731
