*PLANT C OUTPUT FILE

*DSSAT Cropping System Model Ver. 4.6.1.000 -release      DEC 14, 2016; 12:37:38
                                                                                
*RUN   1        : UYSB                      CRGRO046 UYSB1074    1              
 MODEL          : CRGRO046 - Soybean                                            
 EXPERIMENT     : UYSB1074 SN late to create DSS                                
 DATA PATH      :                                                               
 TREATMENT  1   : UYSB                      CRGRO046                            
  
@YEAR DOY   DAS   DAP   TWAD    PHAD    CMAD    CGRD    GRAD    MRAD    CHAD   CL%D   CS%D   TGNN   TGAV    GN%D    GL%D    GC%D
 1990 349     4     0      0  0.0000  0.0000  0.0000  0.0000  0.0000 0.00000  0.000  0.000 25.117 19.241  0.0000  0.0000  0.0000
 1990 350     5     1      0  0.0000  0.0000  0.0000  0.0000  0.0000 0.00000  0.000  0.000 28.004 22.092  0.0000  0.0000  0.0000
 1990 351     6     2      0  0.0000  0.0000  0.0000  0.0000  0.0000 0.00000  0.000  0.000 28.491 24.155  0.0000  0.0000  0.0000
 1990 352     7     3      0  0.0000  0.0000  0.0000  0.0000  0.0000 0.00000  0.000  0.000 24.496 21.522  0.0000  0.0000  0.0000
 1990 353     8     4      0  0.0000  0.0000  0.0000  0.0000  0.0000 0.00000  0.000  0.000 24.111 20.098  0.0000  0.0000  0.0000
 1990 354     9     5      8  0.0000  0.0005  0.0003  0.0001  0.0000 0.00000  3.940  7.875 25.358 20.665  0.0000  0.0000  0.0000
 1990 355    10     6      9  0.1775  0.0006  0.1096  0.0380  0.0150 0.00000  3.885  7.771 27.952 22.972  0.0000  0.0000  0.0000
 1990 356    11     7      9  0.1112  0.0006  0.0686  0.0234  0.0107 0.00000  3.828  7.667 24.809 22.409  0.0000  0.0000  0.0000
 1990 357    12     8     10  0.1974  0.0007  0.1236  0.0403  0.0171 0.00000  3.778  7.595 26.991 23.193  0.0000  0.0000  0.0000
 1990 358    13     9     11  0.1631  0.0006  0.1043  0.0333  0.0120 0.00000  3.737  7.543 23.216 20.028  0.0000  0.0000  0.0000
 1990 359    14    10     13  0.2814  0.0007  0.1825  0.0558  0.0174 0.00000  3.711  7.537 23.971 19.313  0.0000  0.0000  0.0000
 1990 360    15    11     15  0.3287  0.0010  0.2078  0.0631  0.0285 0.00000  3.674  7.505 29.171 23.438  0.0000  0.0000  0.0000
 1990 361    16    12     17  0.3590  0.0012  0.2253  0.0677  0.0346 0.00000  3.634  7.465 29.703 24.866  0.0000  0.0000  0.0000
 1990 362    17    13     19  0.3018  0.0008  0.1979  0.0598  0.0166 0.00000  3.617  7.458 19.974 17.215  0.0000  0.0000  0.0000
 1990 363    18    14     21  0.3139  0.0008  0.1949  0.0736  0.0172 0.00000  3.633  7.429 21.448 16.467  0.0000  0.0000  0.0000
 1990 364    19    15     24  0.4503  0.0012  0.2759  0.1067  0.0298 0.00000  3.648  7.398 25.093 19.431  0.0000  0.0000  0.0000
 1990 365    20    16     27  0.5418  0.0016  0.3307  0.1235  0.0437 0.00000  3.645  7.367 27.452 22.220  0.0000  0.0000  0.0000
 1991 001    21    17     30  0.5643  0.0020  0.3411  0.1235  0.0550 0.00000  3.626  7.332 29.664 24.467  0.0000  0.0000  0.0000
 1991 002    22    18     34  0.6518  0.0024  0.3973  0.1396  0.0631 0.00000  3.601  7.311 28.010 24.821  0.0000  0.0000  0.0000
 1991 003    23    19     39  0.7874  0.0025  0.4765  0.1795  0.0678 0.00000  3.601  7.298 27.535 23.341  0.0000  0.0000  0.0000
 1991 004    24    20     45  0.9986  0.0025  0.6206  0.2232  0.0717 0.00000  3.605  7.332 26.564 21.116  0.0000  0.0000  0.0000
 1991 005    25    21     52  1.1384  0.0029  0.7131  0.2488  0.0815 0.00000  3.601  7.365 26.269 21.108  0.0000  0.0000  0.0000
 1991 006    26    22     60  1.2787  0.0034  0.7992  0.2747  0.0987 0.00000  3.593  7.387 27.891 21.726  0.0000  0.0000  0.0000
 1991 007    27    23     68  1.3889  0.0046  0.8359  0.3059  0.1353 0.00000  3.587  7.364 30.344 24.860  0.0000  0.0000  0.0000
 1991 008    28    24     77  1.6154  0.0057  0.9550  0.3531  0.1793 0.00000  3.579  7.337 32.282 26.905  0.0000  0.0000  0.0000
 1991 009    29    25     82  0.9490  0.0057  0.5768  0.2029  0.0948 0.00000  3.545  7.284 23.896 22.820  0.0000  0.0000  0.0000
 1991 010    30    26     94  2.0387  0.0067  1.2450  0.4322  0.1951 0.00000  3.532  7.302 29.235 25.077  0.0000  0.0000  0.0000
 1991 011    31    27    107  2.1775  0.0066  1.3518  0.4753  0.1683 0.00000  3.531  7.321 26.192 21.927  0.0000  0.0000  0.0000
 1991 012    32    28    124  2.6286  0.0066  1.6596  0.5744  0.1696 0.00000  3.538  7.360 24.586 19.783  0.0000  0.0000  0.0000
 1991 013    33    29    138  2.3245  0.0079  1.4616  0.5007  0.1661 0.00000  3.529  7.361 25.088 20.035  0.0000  0.0000  0.0000
 1991 014    34    30    157  3.1990  0.0098  2.0088  0.6809  0.2383 0.00000  3.523  7.374 26.180 21.378  0.0000  0.0000  0.0000
 1991 015    35    31    177  3.4674  0.0120  2.0686  0.8105  0.3043 0.00000  3.549  7.339 29.306 22.998  0.0000  0.0000  0.0000
 1991 016    36    32    195  2.9627  0.0096  1.8225  0.7131  0.1758 0.00000  3.567  7.324 21.205 17.801  0.0000  0.0000  0.0000
 1991 017    37    33    218  3.7263  0.0086  2.3119  0.9035  0.1885 0.00000  3.594  7.335 22.038 15.838  0.0000  0.0000  0.0000
 1991 018    38    34    248  5.0928  0.0137  3.1144  1.2150  0.3308 0.00000  3.614  7.335 25.415 19.431  0.0000  0.0000  0.0000
 1991 019    39    35    281  5.5827  0.0171  3.3956  1.3132  0.4123 0.00000  3.624  7.323 27.160 20.781  0.0000  0.0000  0.0000
 1991 020    40    36    314  5.6906  0.0203  3.4064  1.3270  0.4858 0.00000  3.621  7.298 29.370 21.989  0.0000  0.0000  0.0000
 1991 021    41    37    337  4.0658  0.0232  2.5714  0.8586  0.3580 0.00000  3.632  7.241 23.357 21.422  0.0000  0.0000  0.0000
 1991 022    42    38    393  8.5898  0.0000  4.8103  1.3340  0.6683 1.05165  8.100 11.097 27.051 22.250  0.0000  0.0000  0.0000
 1991 023    43    39    443  8.6772  0.0512  5.0493  2.0159  0.7440 0.00000  7.444 10.522 27.499 23.092  0.0000  0.0000  0.0000
 1991 024    44    40    464  4.9331  0.0498  1.7880  1.4634  0.4622 0.00000  7.069 10.230 23.207 21.416  0.0000  0.0000  0.0000
 1991 025    45    41    529 11.1140  0.0515  6.4767  2.5934  0.8260 0.03250  6.603  9.909 25.224 21.678  0.0000  0.0000  0.0000
 1991 026    46    42    605 12.8360  0.0511  7.6791  3.0392  0.8527 0.08159  6.293  9.815 24.659 20.182  0.0000  0.0000  0.0000
 1991 027    47    43    689 14.0945  0.0528  8.7674  3.2143  0.8643 0.13961  6.121  9.899 23.699 19.079  0.0000  0.0000  0.0000
 1991 028    48    44    783 15.8464  0.0710  9.6166  3.5089  1.1864 0.21155  6.014 10.101 26.686 21.279  0.0000  0.0000  0.0000
 1991 029    49    45    848 11.1663  0.0784  6.5800  2.5502  0.8999 0.18591  5.931 10.255 23.923 20.664  0.0000  0.0000  0.0000
 1991 030    50    46    943 15.7086  0.0781  9.2614  3.6592  1.0326 0.31581  5.896 10.598 21.857 19.458  0.0000  0.0000  0.0000
 1991 031    51    47   1024 14.1514  0.0940  8.0302  3.3272  1.0673 0.32455  5.894 10.900 22.641 20.206  0.0000  0.0000  0.0000
 1991 032    52    48   1155 21.6097  0.1132 13.6094  4.3838  1.6458 0.63810  6.052 11.534 25.975 21.357  0.0000  0.0000  0.0000
 1991 033    53    49   1298 22.3753  0.1380 14.4260  4.0888  1.8965 0.79530  6.212 12.202 27.916 22.153  0.0000  0.0000  0.0000
 1991 034    54    50   1444 23.6207  0.0000 13.7609  3.7427  2.4619 1.80419  6.913 14.292 30.166 24.797  0.0000  0.0000  0.0000
 1991 035    55    51   1605 25.6353  0.0000 14.3087  3.6951  2.6501 2.94464  7.986 17.360 29.617 24.642  0.0000  0.0000  0.0000
 1991 036    56    52   1774 26.6391  0.0000 14.8185  3.7418  2.7443 3.21935  8.984 20.106 28.412 24.440  0.0000  0.0000  0.0000
 1991 037    57    53   1907 23.2158  0.3749 13.7434  4.4786  2.3845 1.15608  8.961 20.028 26.651 23.288  0.0000  0.0000  0.0000
 1991 038    58    54   2078 28.6616  0.3812 17.1576  5.5034  2.6917 1.50548  8.988 20.094 27.371 22.577  0.0000  0.0000  0.0000
 1991 039    59    55   2234 26.0833  0.4419 16.0195  4.6321  2.8035 1.42964  9.025 20.168 27.853 23.525  0.0000  0.0000  0.0000
 1991 040    60    56   2364 24.6202  0.4916 13.7047  4.7311  2.8898 1.28600  9.061 20.225 27.992 24.023  0.0000  0.0000  0.0000
 1991 041    61    57   2544 30.5552  0.0000 16.4560  4.8762  3.3034 2.99055  9.652 21.747 29.190 23.504  0.0000  0.0000  0.0000
 1991 042    62    58   2688 27.9256  0.6318 15.4046  5.2852  3.4973 1.45221  9.684 21.767 28.401 24.969  0.0000  0.0000  0.0000
 1991 043    63    59   2859 30.6192  0.5274 17.4522  6.0573  2.7633 1.59930  9.756 21.905 24.240 20.916  0.0000  0.0000  0.0000
 1991 044    64    60   2999 25.7315  0.4079 14.3205  5.3294  1.9156 1.20063  9.813 22.017 22.202 17.092  0.0000  0.0000  0.0000
 1991 045    65    61   3125 23.0687  0.3650 13.0360  4.8848  1.5659 1.00738  9.863 22.109 19.425 15.602  0.0000  0.0000  0.0000
 1991 046    66    62   3259 24.6776  0.3811 13.7592  5.1919  1.7331 1.12904  9.924 22.232 21.197 15.623  0.0000  0.0000  0.0000
 1991 047    67    63   3427 29.8836  0.4677 16.8934  6.0195  2.3544 1.61391 10.021 22.445 24.393 17.141  0.0000  0.0000  0.0000
 1991 048    68    64   3595 32.4526  0.6935 17.7549  6.3563  3.6452 1.51998 10.087 22.557 28.676 21.890  0.0000  0.0000  0.0000
 1991 049    69    65   3742 30.1841  0.7703 16.3552  5.8833  3.6002 1.15321 10.124 22.582 27.382 22.312  0.0000  0.0000  0.0000
 1991 050    70    66   3896 31.4351  0.7303 16.8112  6.4275  3.5866 1.11820 10.160 22.611 28.071 21.324  0.0000  0.0000  0.0000
 1991 051    71    67   4007 26.4442  0.8997 13.9210  5.3806  4.1602 0.31768 10.103 22.380 29.902 24.442  0.0000  0.0000  0.0000
 1991 052    72    68   4058 14.6730  0.0000  7.4860  2.1568  3.0922 0.59075 10.305 22.739 26.714 23.431  0.0000  0.0000  0.0000
 1991 053    73    69   4156 28.6817  0.8744 14.6573  6.2552  3.5289 0.43367 10.246 22.544 26.568 21.538  6.2057 20.1632 32.5510
 1991 054    74    70   4265 28.1143  0.6872 15.1326  6.1737  2.5439 0.69905 10.267 22.520 22.521 17.635  6.2385 18.0913 34.4178
 1991 055    75    71   4373 31.9921  0.9316 16.3011  7.0745  3.8540 0.77156 10.272 22.444 27.317 21.505  6.2176 19.3592 33.2807
 1991 056    76    72   4504 31.7998  1.0251 15.9324  6.8607  4.7079 0.70570 10.258 22.321 31.036 23.657  6.2745 19.8930 32.3913
 1991 057    77    73   4588 30.9553  1.1540 15.1419  6.4093  5.5053 0.71709 10.224 22.163 32.924 26.010  6.3607 20.0849 31.6605
 1991 058    78    74   4574 22.2214  1.2852 11.2636  4.5210  5.1772 0.00000 10.091 21.731 32.260 27.307  6.4540 20.2133 30.9494
 1991 059    79    75   4571 16.1964  1.1182  8.3265  3.8245  3.3024 0.00000  9.981 21.349 24.351 22.855  6.3910 20.2979 31.2586
 1991 060    80    76   4590 20.0805  1.1706  9.9184  4.8308  3.8841 0.00000  9.868 20.941 26.790 24.013  6.3850 20.3572 31.2365
 1991 061    81    77   4631 18.7782  1.0909  9.5940  4.5759  3.4640 0.00000  9.768 20.556 25.967 22.692  6.3546 20.3759 31.4080
 1991 062    82    78   4711 29.1389  1.1247 13.9288  7.0811  4.8733 0.00000  9.665 20.154 30.506 24.598  6.3682 20.4008 31.2980
 1991 063    83    79   4775 24.7135  1.0671 12.4770  6.2168  3.7534 0.00000  9.568 19.769 25.953 22.217  6.3432 20.3902 31.4649
 1991 064    84    80   4858 28.3117  0.9583 14.1880  7.4322  3.4541 0.00000  9.483 19.421 25.628 20.044  6.3158 20.2470 31.7790
 1991 065    85    81   4945 28.0709  1.0447 14.1972  7.2536  3.9392 0.00000  9.383 19.033 26.377 21.826  6.2997 20.2473 31.8793
 1991 066    86    82   5019 26.7507  1.0447 12.9590  6.8645  4.4536 0.00000  9.278 18.639 30.042 22.969  6.2975 20.2778 31.8626
 1991 067    87    83   5084 26.4781  1.1841 12.1680  6.5921  5.9340 0.01573  9.147 18.187 33.067 27.418  6.3463 20.3067 31.5291
 1991 068    88    84   5095 14.6005  0.9944  7.8520  3.3780  3.5374 0.02605  9.056 17.817 25.089 23.064  6.3527 20.2984 31.4970
 1991 069    89    85   5115 13.2967  1.0161  7.4107  3.0438  3.3460 0.00710  8.950 17.414 24.669 22.610  6.3481 20.3021 31.5223
 1991 070    90    86   5171 20.8641  0.7868 10.2974  5.4426  3.8802 0.07544  8.906 17.147 25.695 22.820  6.3684 20.2595 31.4382
 1991 071    91    87   5226 23.2863  0.7744 11.1042  6.1513  4.3545 0.08339  8.863 16.884 27.656 23.611  6.3928 20.2260 31.3188
 1991 072    92    88   5280 20.3932  0.7467 10.1217  5.5114  3.5067 0.06189  8.808 16.610 25.721 21.181  6.3953 20.1717 31.3576
 1991 073    93    89   5342 21.3776  0.7054 10.2846  5.7799  3.7761 0.08045  8.762 16.360 25.823 21.958  6.4047 20.1336 31.3370
 1991 074    94    90   5419 22.8542  0.5682 10.9425  6.5261  3.3677 0.09751  8.741 16.179 25.228 19.876  6.4127 20.0274 31.3929
 1991 075    95    91   5474 19.5121  0.7514  9.1708  5.1288  3.9922 0.07038  8.667 15.887 27.396 22.862  6.4218 20.0174 31.3464
 1991 076    96    92   5510 14.4621  0.8363  7.0762  3.4995  3.5566 0.04085  8.555 15.525 26.032 22.668  6.4243 20.0158 31.3320
 1991 077    97    93   5578 20.9218  0.6640  9.8463  5.7881  3.4693 0.07367  8.483 15.264 24.844 21.092  6.4271 19.9818 31.3489
 1991 078    98    94   5631 18.2483  0.6924  8.2876  4.7870  3.8487 0.07080  8.395 14.979 28.572 22.557  6.4340 19.9710 31.3163
 1991 079    99    95   5683 18.0124  0.7228  8.1775  4.8189  3.7972 0.05930  8.287 14.665 28.294 22.565  6.4382 19.9658 31.2957
 1991 080   100    96   5735 18.1512  0.6667  7.9330  4.8068  4.0174 0.07945  8.192 14.388 28.901 23.421  6.4486 19.9558 31.2404
 1991 081   101    97   5785 17.6880  0.6885  7.7802  4.7468  3.8297 0.06860  8.079 14.086 28.026 23.043  6.4552 19.9495 31.2056
 1991 082   102    98   5829 16.7767  0.7235  7.0089  4.3036  4.4230 0.06318  7.947 13.755 31.060 25.127  6.4670 19.9446 31.1368
 1991 083   103    99   5864 15.2452  0.7897  6.2074  3.7502  4.6372 0.04360  7.780 13.367 32.232 26.268  6.4774 19.9452 31.0710
 1991 084   104   100   5902 13.4616  0.6530  6.0022  3.5693  2.9987 0.05123  7.645 13.053 26.046 20.969  6.4782 19.9277 31.0833
 1991 085   105   101   5940 11.1952  0.5205  5.4883  3.4639  1.7349 0.04476  7.536 12.802 19.993 15.448  6.4844 19.8035 31.1693
 1991 086   106   102   5976 11.5175  0.5142  5.3641  3.4006  2.0467 0.05688  7.428 12.561 22.109 17.004  6.4889 19.7237 31.2207
 1991 087   107   103   6017 13.5544  0.6191  6.0285  3.8249  2.7246 0.04637  7.283 12.249 23.758 20.205  6.4883 19.7056 31.2425
 1991 088   108   104   6048 12.5216  0.6595  5.1297  3.2123  3.4162 0.05300  7.123 11.914 26.541 23.378  6.4928 19.7054 31.2145
 1991 089   109   105   6069 11.5296  0.7445  4.3657  2.6949  4.1432 0.03737  6.925 11.513 29.535 26.374  6.5000 19.7078 31.1673
 1991 090   110   106   6086  8.5624  0.7175  3.6425  2.0499  2.7983 0.01368  6.719 11.103 24.005 22.005  6.4981 19.7121 31.1750
 1991 091   111   107   6114 10.4499  0.5929  4.4611  2.7608  2.5559 0.03438  6.553 10.778 24.089 20.268  6.4975 19.7004 31.1902
 1991 092   112   108   6154 10.0206  0.0000  3.8594  1.4059  2.2985 1.12357  6.858 11.638 25.185 18.390  6.4472 19.7760 31.4287
 1991 093   113   109   5990  7.9873  0.6863  3.7106  1.8531  2.1500 0.00000  6.582 10.646 24.119 18.414  6.4211 19.8040 31.5641
 1991 094   114   110   5860  5.3745  0.0778  2.4328  0.8904  1.4303 0.13891  6.594 10.248 19.588 15.427  6.3922 19.8234 31.7252
 1991 095   115   111   5747  4.1441  0.4543  1.9523  1.0803  1.2994 0.00000  6.358  9.519 20.785 14.288  6.3866 19.7943 31.7892
 1991 096   116   112   5654  3.3434  0.4445  1.3169  0.4844  1.7501 0.00000  6.100  8.840 24.857 17.946  6.3761 19.8058 31.8434
 1991 097   117   113   5569  1.5613  0.3782  0.4944  0.1418  1.3508 0.00000  5.855  8.253 19.296 16.960  6.3760 19.8009 31.8493
 1991 098   118   114   5501  2.0684  0.3422  0.6835  0.2312  1.4971 0.00000  5.617  7.729 22.968 17.498  6.3757 19.7954 31.8567
 1991 099   119   115   5444  1.6312  0.3155  0.3701  0.1062  1.4957 0.00000  5.378  7.257 21.406 18.343  6.3754 19.7935 31.8601
 1991 100   120   116   5393  0.8041  0.3163  0.0000  0.0000  1.9295 0.00000  5.117  6.807 24.627 21.810  6.3754 19.7935 31.8601
 1991 101   121   117   5351  0.9997  0.2878  0.0000  0.0000  1.9271 0.00000  4.868  6.402 25.210 21.806  6.3754 19.7935 31.8601
 1991 102   122   118   5316  0.6074  0.2616  0.0000  0.0000  1.8386 0.00000  4.633  6.039 24.776 21.514  6.3754 19.7935 31.8601
 1991 103   123   119   5286  0.4365  0.2487  0.0000  0.0000  1.9501 0.00000  4.401  5.702 24.993 22.531  6.3754 19.7935 31.8601
 1991 104   124   120   5261  0.2670  0.2252  0.0000  0.0000  1.7839 0.00000  4.187  5.400 23.628 21.619  6.3754 19.7935 31.8601

*DSSAT Cropping System Model Ver. 4.6.1.000 -release      DEC 14, 2016; 12:37:38
                                                                                
*RUN   2        : UYSB                      CRGRO046 UYSB1074    1              
 MODEL          : CRGRO046 - Soybean                                            
 EXPERIMENT     : UYSB1074 SN late to create DSS                                
 DATA PATH      :                                                               
 TREATMENT  1   : UYSB                      CRGRO046                            
  
@YEAR DOY   DAS   DAP   TWAD    PHAD    CMAD    CGRD    GRAD    MRAD    CHAD   CL%D   CS%D   TGNN   TGAV    GN%D    GL%D    GC%D
 1991 349     4     0      0  0.0000  0.0000  0.0000  0.0000  0.0000 0.00000  0.000  0.000 22.595 20.158  0.0000  0.0000  0.0000
 1991 350     5     1      0  0.0000  0.0000  0.0000  0.0000  0.0000 0.00000  0.000  0.000 25.596 22.085  0.0000  0.0000  0.0000
 1991 351     6     2      0  0.0000  0.0000  0.0000  0.0000  0.0000 0.00000  0.000  0.000 26.483 22.936  0.0000  0.0000  0.0000
 1991 352     7     3      0  0.0000  0.0000  0.0000  0.0000  0.0000 0.00000  0.000  0.000 29.331 24.566  0.0000  0.0000  0.0000
 1991 353     8     4      0  0.0000  0.0000  0.0000  0.0000  0.0000 0.00000  0.000  0.000 29.379 24.470  0.0000  0.0000  0.0000
 1991 354     9     5      8  0.0000  0.0007  0.0004  0.0002  0.0000 0.00000  3.926  7.845 29.272 24.614  0.0000  0.0000  0.0000
 1991 355    10     6      9  0.1718  0.0007  0.1032  0.0359  0.0184 0.00000  3.862  7.725 30.738 26.260  0.0000  0.0000  0.0000
 1991 356    11     7      9  0.1235  0.0007  0.0756  0.0251  0.0126 0.00000  3.803  7.618 26.196 23.760  0.0000  0.0000  0.0000
 1991 357    12     8     11  0.2263  0.0008  0.1628  0.0376  0.0213 0.00000  3.774  7.565 28.604 24.842  0.0000  0.0000  0.0000
 1991 358    13     9     12  0.2761  0.0009  0.1655  0.0560  0.0274 0.00000  3.718  7.510 29.444 25.789  0.0000  0.0000  0.0000
 1991 359    14    10     14  0.2682  0.0008  0.1714  0.0528  0.0202 0.00000  3.677  7.484 24.509 21.571  0.0000  0.0000  0.0000
 1991 360    15    11     16  0.2625  0.0007  0.1709  0.0527  0.0155 0.00000  3.653  7.475 21.463 18.130  0.0000  0.0000  0.0000
 1991 361    16    12     18  0.3397  0.0009  0.2217  0.0674  0.0210 0.00000  3.631  7.473 23.496 18.910  0.0000  0.0000  0.0000
 1991 362    17    13     20  0.3847  0.0011  0.2495  0.0748  0.0278 0.00000  3.601  7.457 25.042 20.849  0.0000  0.0000  0.0000
 1991 363    18    14     23  0.4228  0.0014  0.2534  0.1001  0.0346 0.00000  3.620  7.394 27.341 22.073  0.0000  0.0000  0.0000
 1991 364    19    15     25  0.4508  0.0017  0.2695  0.1029  0.0428 0.00000  3.615  7.334 28.667 24.008  0.0000  0.0000  0.0000
 1991 365    20    16     28  0.4833  0.0021  0.2836  0.1052  0.0575 0.00000  3.593  7.274 31.412 27.147  0.0000  0.0000  0.0000
 1992 001    21    17     30  0.3813  0.0022  0.2292  0.0818  0.0411 0.00000  3.560  7.217 26.972 24.212  0.0000  0.0000  0.0000
 1992 002    22    18     34  0.6355  0.0023  0.3813  0.1452  0.0581 0.00000  3.561  7.203 27.330 23.925  0.0000  0.0000  0.0000
 1992 003    23    19     39  0.8142  0.0018  0.5128  0.1854  0.0471 0.00000  3.578  7.264 21.996 18.770  0.0000  0.0000  0.0000
 1992 004    24    20     45  1.0897  0.0024  0.6852  0.2353  0.0740 0.00000  3.583  7.328 25.206 20.941  0.0000  0.0000  0.0000
 1992 005    25    21     53  1.2137  0.0029  0.7623  0.2630  0.0867 0.00000  3.584  7.369 26.782 21.118  0.0000  0.0000  0.0000
 1992 006    26    22     60  1.1106  0.0036  0.6901  0.2434  0.0853 0.00000  3.576  7.364 25.656 21.534  0.0000  0.0000  0.0000
 1992 007    27    23     68  1.3991  0.0043  0.8525  0.3152  0.1166 0.00000  3.580  7.354 27.759 22.848  0.0000  0.0000  0.0000
 1992 008    28    24     78  1.6945  0.0057  1.0215  0.3685  0.1678 0.00000  3.572  7.342 29.533 25.626  0.0000  0.0000  0.0000
 1992 009    29    25     88  1.7980  0.0065  1.0895  0.3823  0.1812 0.00000  3.554  7.330 29.518 25.575  0.0000  0.0000  0.0000
 1992 010    30    26     99  1.9059  0.0076  1.1502  0.4087  0.1937 0.00000  3.537  7.308 28.772 25.510  0.0000  0.0000  0.0000
 1992 011    31    27    115  2.6297  0.0066  1.6490  0.5742  0.1827 0.00000  3.544  7.350 25.365 21.028  0.0000  0.0000  0.0000
 1992 012    32    28    132  2.7208  0.0079  1.7036  0.5877  0.1993 0.00000  3.541  7.367 26.337 21.140  0.0000  0.0000  0.0000
 1992 013    33    29    151  3.2155  0.0097  2.0156  0.6834  0.2444 0.00000  3.534  7.381 26.319 21.875  0.0000  0.0000  0.0000
 1992 014    34    30    169  3.0275  0.0112  1.8217  0.7137  0.2426 0.00000  3.553  7.340 26.302 21.822  0.0000  0.0000  0.0000
 1992 015    35    31    186  2.8002  0.0071  1.7436  0.6823  0.1317 0.00000  3.580  7.343 18.867 15.355  0.0000  0.0000  0.0000
 1992 016    36    32    207  3.5214  0.0086  2.1839  0.8536  0.1798 0.00000  3.604  7.348 21.424 16.227  0.0000  0.0000  0.0000
 1992 017    37    33    237  4.9083  0.0136  2.9961  1.1690  0.3275 0.00000  3.621  7.343 25.411 19.928  0.0000  0.0000  0.0000
 1992 018    38    34    270  5.5761  0.0176  3.3613  1.3090  0.4415 0.00000  3.626  7.326 27.988 21.932  0.0000  0.0000  0.0000
 1992 019    39    35    302  5.6359  0.0221  3.3539  1.3032  0.5198 0.00000  3.617  7.289 29.116 23.669  0.0000  0.0000  0.0000
 1992 020    40    36    344  7.4196  0.0267  4.4730  1.6197  0.7560 0.00000  3.645  7.262 31.198 25.716  0.0000  0.0000  0.0000
 1992 021    41    37    390  7.9481  0.0308  4.9275  1.7032  0.7661 0.00000  3.667  7.233 28.885 24.944  0.0000  0.0000  0.0000
 1992 022    42    38    449  9.4031  0.0333  6.2749  1.8854  0.8376 0.00880  3.706  7.277 28.317 23.946  0.0000  0.0000  0.0000
 1992 023    43    39    506 10.8290  0.0349  5.4357  2.8983  0.8290 0.04015  3.690  7.447 26.313 21.942  0.0000  0.0000  0.0000
 1992 024    44    40    563 10.0939  0.0412  5.6531  2.4455  0.8394 0.07738  3.754  7.714 26.289 22.384  0.0000  0.0000  0.0000
 1992 025    45    41    618  9.7689  0.0533  5.5191  2.2503  0.9829 0.11531  3.843  8.031 27.230 24.472  0.0000  0.0000  0.0000
 1992 026    46    42    704 13.9240  0.0612  8.9389  2.7285  1.3346 0.25084  4.094  8.684 27.988 24.872  0.0000  0.0000  0.0000
 1992 027    47    43    787 14.7118  0.0712  7.7578  3.5531  1.3510 0.27706  4.229  9.234 27.229 23.970  0.0000  0.0000  0.0000
 1992 028    48    44    864 14.3707  0.0891  7.6995  3.2434  1.5325 0.33636  4.415  9.784 28.726 25.467  0.0000  0.0000  0.0000
 1992 029    49    45    943 14.7921  0.1035  8.1601  3.1895  1.5995 0.42403  4.639 10.389 28.205 25.412  0.0000  0.0000  0.0000
 1992 030    50    46   1001 10.7567  0.1201  6.6373  1.8734  1.3627 0.38867  4.855 10.849 28.001 25.459  0.0000  0.0000  0.0000
 1992 031    51    47   1104 17.2393  0.0004 10.4047  2.7243  2.0201 0.76321  5.308 11.991 29.744 26.558  0.0000  0.0000  0.0000
 1992 032    52    48   1220 18.9751  0.0000 11.0300  2.8040  2.1491 1.48193  6.089 14.089 29.585 26.005  0.0000  0.0000  0.0000
 1992 033    53    49   1344 22.3209  0.2136 12.3382  4.1489  2.6087 1.06749  6.367 14.783 29.679 26.851  0.0000  0.0000  0.0000
 1992 034    54    50   1439 17.3150  0.2245  9.8470  3.2679  1.9117 0.86387  6.567 15.244 26.446 24.299  0.0000  0.0000  0.0000
 1992 035    55    51   1565 22.4354  0.2442 12.6697  4.3821  2.2646 1.17288  6.831 15.877 26.930 23.995  0.0000  0.0000  0.0000
 1992 036    56    52   1701 24.6763  0.2913 13.7883  4.8275  2.6778 1.33537  7.104 16.521 28.012 25.042  0.0000  0.0000  0.0000
 1992 037    57    53   1848 25.9739  0.3234 14.9209  4.9605  2.8000 1.39426  7.363 17.121 28.137 24.738  0.0000  0.0000  0.0000
 1992 038    58    54   2001 27.2120  0.0100 15.0854  4.7159  3.2387 1.54061  7.770 18.067 29.817 25.881  0.0000  0.0000  0.0000
 1992 039    59    55   2145 26.6260  0.0000 14.3063  4.5632  3.5754 1.53166  8.168 18.985 31.424 27.024  0.0000  0.0000  0.0000
 1992 040    60    56   2228 17.3299  0.0000  8.2604  3.0152  2.4481 1.55590  8.686 20.274 27.740 24.629  0.0000  0.0000  0.0000
 1992 041    61    57   2284 13.8217  0.4518  7.4729  2.9804  1.9230 0.00000  8.622 20.002 24.728 22.583  0.0000  0.0000  0.0000
 1992 042    62    58   2370 18.4795  0.0000  9.5553  3.7257  2.2251 0.44284  8.804 20.334 25.080 22.577  0.0000  0.0000  0.0000
 1992 043    63    59   2529 27.9582  0.0000 11.5452  4.3097  2.9350 5.75821 10.532 24.926 25.930 23.071  0.0000  0.0000  0.0000
 1992 044    64    60   2602 17.6165  0.3313  9.1686  3.5462  2.7150 0.06919 10.556 24.837 27.965 24.713  0.0000  0.0000  0.0000
 1992 045    65    61   2654 12.9183  0.3711  6.9970  2.5252  1.9498 0.04452 10.552 24.699 23.608 21.929  0.0000  0.0000  0.0000
 1992 046    66    62   2781 26.2262  0.0000 13.7736  4.9409  3.4596 0.82192 10.821 25.174 28.609 25.000  0.0000  0.0000  0.0000
 1992 047    67    63   2910 27.7238  0.7706 14.7694  5.6347  3.7426 0.81421 10.848 25.083 29.270 25.341  6.4882 20.5000 30.4490
 1992 048    68    64   3044 28.0495  0.0000 13.4915  5.4199  3.7169 1.88935 11.469 26.562 28.569 24.891  6.4587 20.5000 30.6329
 1992 049    69    65   3170 28.3315  0.9162 15.0788  5.9960  4.2079 0.49392 11.423 26.299 30.636 26.172  6.5147 20.5000 30.2828
 1992 050    70    66   3272 27.7265  1.0141 13.4313  6.1873  4.7869 0.23260 11.320 25.906 31.829 28.080  6.6055 20.5000 29.7158
 1992 051    71    67   3370 27.9570  1.0447 13.1151  6.5608  5.0123 0.00000 11.173 25.412 32.293 28.474  6.6651 20.5000 29.3433
 1992 052    72    68   3440 20.0340  0.8409 10.0662  5.0725  2.7769 0.00000 11.069 25.023 26.596 21.850  6.5135 20.4170 30.3737
 1992 053    73    69   3464  8.5243  0.5110  4.8752  2.4064  1.3195 0.03431 11.051 24.832 18.304 16.663  6.5294 19.3227 31.3684
 1992 054    74    70   3539 22.6817  0.8539 11.0571  5.9563  2.8823 0.00000 10.969 24.443 24.864 21.726  6.4447 19.5631 31.6572
 1992 055    75    71   3637 26.5543  0.8396 13.5141  6.8160  3.0296 0.00000 10.891 24.058 24.862 21.260  6.3876 19.6794 31.8979
 1992 056    76    72   3728 25.7113  0.7892 12.9365  6.9059  2.7161 0.00000 10.820 23.694 23.749 19.899  6.3465 19.6324 32.2017
 1992 057    77    73   3808 24.8620  0.8604 12.3741  6.6452  3.1916 0.00000 10.731 23.288 26.914 21.604  6.3225 19.7285 32.2561
 1992 058    78    74   3876 21.2984  0.7731 10.7820  6.1304  2.4682 0.00000 10.658 22.920 23.498 19.330  6.2992 19.6229 32.5073
 1992 059    79    75   3946 18.4426  0.6291  9.8147  5.6624  1.7245 0.00000 10.610 22.622 20.460 15.758  6.3114 19.1236 32.9301
 1992 060    80    76   4020 22.2553  0.7272 11.3078  6.4677  2.3556 0.00000 10.544 22.267 23.075 18.196  6.2992 19.0130 33.1170
 1992 061    81    77   4076 22.3297  0.8005 11.1035  6.4442  2.8229 0.00000 10.460 21.864 24.929 20.195  6.2840 19.0858 33.1389
 1992 062    82    78   4135 21.9827  0.5447 10.6960  6.2172  3.1092 0.08951 10.479 21.683 25.656 21.456  6.3090 19.1293 32.9395
 1992 063    83    79   4186 16.5677  0.6724  8.3890  4.4056  2.9183 0.05271 10.444 21.383 25.500 21.871  6.3203 19.1796 32.8184
 1992 064    84    80   4201 12.4995  0.8183  6.6338  3.0102  2.9436 0.01797 10.347 20.951 25.840 22.995  6.3242 19.2421 32.7317
 1992 065    85    81   4251 19.8032  0.6082  9.4118  5.4246  3.3842 0.07579 10.323 20.691 26.624 22.856  6.3434 19.2867 32.5668
 1992 066    86    82   4305 18.7739  0.6229  8.8955  5.0436  3.3470 0.06982 10.284 20.404 25.762 22.990  6.3592 19.3252 32.4296
 1992 067    87    83   4366 19.3908  0.6005  8.8785  5.2371  3.6479 0.07530 10.241 20.126 28.890 23.738  6.3783 19.3577 32.2778
 1992 068    88    84   4405 14.6037  0.7150  6.8151  3.7190  3.4696 0.04797 10.141 19.735 28.457 24.585  6.3924 19.3852 32.1624
 1992 069    89    85   4437 12.6308  0.7808  5.9930  3.1179  3.3293 0.02780  9.998 19.267 27.752 24.769  6.4009 19.4145 32.0800
 1992 070    90    86   4454  8.5429  0.7741  4.3750  1.9052  2.6228 0.01084  9.834 18.771 24.304 22.990  6.4003 19.4383 32.0602
 1992 071    91    87   4481 11.3273  0.7211  5.2796  2.7276  3.0702 0.03338  9.687 18.323 26.429 24.300  6.4077 19.4567 31.9950
 1992 072    92    88   4514 13.1256  0.6909  5.7409  3.2349  3.5369 0.04654  9.543 17.900 28.668 25.760  6.4220 19.4708 31.8920
 1992 073    93    89   4539 10.8906  0.7515  4.9289  2.4814  3.1716 0.02030  9.351 17.392 27.340 25.036  6.4274 19.4908 31.8379
 1992 074    94    90   4572 12.9292  0.6802  5.5541  3.2198  3.4580 0.03796  9.181 16.944 28.759 25.641  6.4380 19.5057 31.7571
 1992 075    95    91   4616 14.0083  0.5741  6.2322  3.8309  2.7823 0.04646  9.041 16.575 25.302 22.503  6.4411 19.5163 31.7267
 1992 076    96    92   4661 13.3021  0.4712  6.0890  3.8666  2.1312 0.05289  8.930 16.284 23.201 19.341  6.4432 19.4819 31.7481
 1992 077    97    93   4705 13.7086  0.5068  6.0221  3.9057  2.5555 0.05220  8.799 15.959 26.381 21.213  6.4455 19.4789 31.7367
 1992 078    98    94   4744 13.0723  0.5427  5.5299  3.5903  2.8896 0.04842  8.645 15.596 28.121 23.061  6.4502 19.4876 31.6988
 1992 079    99    95   4778 12.2693  0.5525  5.0540  3.2939  3.0102 0.04683  8.478 15.216 28.679 23.975  6.4566 19.4947 31.6517
 1992 080   100    96   4802 10.0035  0.5888  4.0587  2.5458  2.9164 0.03354  8.282 14.783 28.854 24.328  6.4613 19.5017 31.6149
 1992 081   101    97   4801  4.4182  0.6190  2.0550  0.9552  1.8218 0.00000  8.046 14.279 21.993 20.509  6.4587 19.5041 31.6292
 1992 082   102    98   4816  5.6589  0.5011  2.8114  1.7012  1.2544 0.00560  7.853 13.871 18.914 16.018  6.4584 19.4584 31.6764
 1992 083   103    99   4840  7.2272  0.3823  3.3738  2.2562  1.2622 0.03525  7.721 13.593 20.092 15.293  6.4642 19.3817 31.7173
 1992 084   104   100   4865  7.7171  0.4243  3.5556  2.3576  1.4183 0.02636  7.562 13.266 21.248 16.382  6.4665 19.3274 31.7571
 1992 085   105   101   4885  7.1867  0.4359  3.1093  2.0199  1.6740 0.03129  7.397 12.930 22.747 18.519  6.4680 19.3057 31.7691
 1992 086   106   102   4910  7.7170  0.2169  3.2756  1.3668  2.1126 0.10808  7.366 12.875 25.290 21.171  6.4255 19.3958 31.9450
 1992 087   107   103   4783  2.6353  0.5192  1.1770  0.4898  1.4409 0.00000  7.067 11.808 19.438 18.699  6.4243 19.3921 31.9560
 1992 088   108   104   4696  4.8494  0.4776  2.0091  0.8134  1.9009 0.00000  6.752 10.831 24.606 21.373  6.4037 19.4367 32.0400
 1992 089   109   105   4616  2.7234  0.3778  1.0910  0.4826  1.3539 0.00000  6.473 10.008 20.804 18.592  6.4027 19.4328 32.0501
 1992 090   110   106   4549  1.6880  0.3170  0.6214  0.2182  1.1631 0.00000  6.214  9.300 21.179 17.320  6.4024 19.4277 32.0576
 1992 091   111   107   4497  2.1270  0.2774  0.8062  0.3565  1.1360 0.00000  5.967  8.680 21.650 16.953  6.4020 19.4198 32.0679
 1992 092   112   108   4452  1.3752  0.2528  0.4135  0.1186  1.1309 0.00000  5.724  8.127 21.687 17.484  6.4017 19.4167 32.0726
 1992 093   113   109   4412  0.9646  0.2514  0.0000  0.0000  1.4429 0.00000  5.456  7.607 24.796 20.632  6.4017 19.4167 32.0726
 1992 094   114   110   4379  0.9731  0.2395  0.0000  0.0000  1.6027 0.00000  5.188  7.128 25.338 22.261  6.4017 19.4167 32.0726
 1992 095   115   111   4350  0.8806  0.2323  0.0000  0.0000  1.9382 0.00000  4.917  6.680 28.546 24.913  6.4017 19.4167 32.0726
 1992 096   116   112   4327  0.2621  0.1869  0.0000  0.0000  1.2205 0.00000  4.692  6.313 20.827 19.711  6.4017 19.4167 32.0726
 1992 097   117   113   4308  0.1845  0.1619  0.0000  0.0000  0.9835 0.00000  4.491  5.998 19.760 17.354  6.4017 19.4167 32.0726
 1992 098   118   114   4293  0.3225  0.1414  0.0000  0.0000  0.8019 0.00000  4.312  5.725 18.358 15.188  6.4017 19.4167 32.0726

*DSSAT Cropping System Model Ver. 4.6.1.000 -release      DEC 14, 2016; 12:37:38
                                                                                
*RUN   3        : UYSB                      CRGRO046 UYSB1074    1              
 MODEL          : CRGRO046 - Soybean                                            
 EXPERIMENT     : UYSB1074 SN late to create DSS                                
 DATA PATH      :                                                               
 TREATMENT  1   : UYSB                      CRGRO046                            
  
@YEAR DOY   DAS   DAP   TWAD    PHAD    CMAD    CGRD    GRAD    MRAD    CHAD   CL%D   CS%D   TGNN   TGAV    GN%D    GL%D    GC%D
 1992 349     4     0      0  0.0000  0.0000  0.0000  0.0000  0.0000 0.00000  0.000  0.000 26.709 22.159  0.0000  0.0000  0.0000
 1992 350     5     1      0  0.0000  0.0000  0.0000  0.0000  0.0000 0.00000  0.000  0.000 25.605 19.155  0.0000  0.0000  0.0000
 1992 351     6     2      0  0.0000  0.0000  0.0000  0.0000  0.0000 0.00000  0.000  0.000 27.499 21.300  0.0000  0.0000  0.0000
 1992 352     7     3      0  0.0000  0.0000  0.0000  0.0000  0.0000 0.00000  0.000  0.000 26.283 22.736  0.0000  0.0000  0.0000
 1992 353     8     4      0  0.0000  0.0000  0.0000  0.0000  0.0000 0.00000  0.000  0.000 28.286 22.589  0.0000  0.0000  0.0000
 1992 354     9     5      8  0.0000  0.0006  0.0004  0.0002  0.0000 0.00000  3.933  7.860 28.646 22.842  0.0000  0.0000  0.0000
 1992 355    10     6      9  0.1963  0.0007  0.1282  0.0384  0.0203 0.00000  3.892  7.751 31.713 26.088  0.0000  0.0000  0.0000
 1992 356    11     7     10  0.2089  0.0007  0.1248  0.0455  0.0195 0.00000  3.831  7.667 30.180 24.197  0.0000  0.0000  0.0000
 1992 357    12     8     11  0.1405  0.0008  0.0850  0.0292  0.0150 0.00000  3.771  7.567 27.964 24.095  0.0000  0.0000  0.0000
 1992 358    13     9     12  0.1566  0.0009  0.0961  0.0318  0.0166 0.00000  3.713  7.479 26.782 24.310  0.0000  0.0000  0.0000
 1992 359    14    10     14  0.3033  0.0009  0.1924  0.0611  0.0253 0.00000  3.674  7.465 27.410 23.397  0.0000  0.0000  0.0000
 1992 360    15    11     15  0.3017  0.0009  0.1941  0.0598  0.0226 0.00000  3.640  7.452 25.763 21.356  0.0000  0.0000  0.0000
 1992 361    16    12     18  0.3776  0.0010  0.2451  0.0741  0.0258 0.00000  3.615  7.457 25.510 20.422  0.0000  0.0000  0.0000
 1992 362    17    13     20  0.4020  0.0011  0.2432  0.0947  0.0283 0.00000  3.639  7.412 25.949 20.431  0.0000  0.0000  0.0000
 1992 363    18    14     23  0.4764  0.0014  0.2859  0.1087  0.0405 0.00000  3.646  7.373 29.481 22.709  0.0000  0.0000  0.0000
 1992 364    19    15     24  0.2671  0.0016  0.1598  0.0592  0.0272 0.00000  3.613  7.298 24.813 22.699  0.0000  0.0000  0.0000
 1992 365    20    16     26  0.3076  0.0016  0.1891  0.0668  0.0274 0.00000  3.583  7.256 22.806 21.480  0.0000  0.0000  0.0000
 1992 366    21    17     28  0.2985  0.0015  0.2000  0.0602  0.0238 0.00000  3.594  7.221 20.066 19.708  0.0000  0.0000  0.0000
 1993 001    22    18     30  0.3518  0.0017  0.2277  0.0720  0.0286 0.00000  3.606  7.187 20.986 20.413  0.0000  0.0000  0.0000
 1993 002    23    19     32  0.4092  0.0018  0.2653  0.0814  0.0328 0.00000  3.613  7.172 21.479 20.619  0.0000  0.0000  0.0000
 1993 003    24    20     35  0.4625  0.0020  0.2999  0.0899  0.0371 0.00000  3.617  7.171 21.606 20.817  0.0000  0.0000  0.0000
 1993 004    25    21     40  0.7758  0.0027  0.5137  0.1419  0.0725 0.00000  3.627  7.205 27.681 24.419  0.0000  0.0000  0.0000
 1993 005    26    22     47  1.1503  0.0033  0.6971  0.2305  0.1140 0.00000  3.656  7.229 29.553 26.219  0.0000  0.0000  0.0000
 1993 006    27    23     56  1.5303  0.0038  0.9389  0.3000  0.1460 0.00000  3.680  7.287 30.349 25.940  0.0000  0.0000  0.0000
 1993 007    28    24     61  1.0738  0.0043  0.5852  0.2324  0.0990 0.00000  3.618  7.271 26.273 23.799  0.0000  0.0000  0.0000
 1993 008    29    25     72  1.6432  0.0047  1.1200  0.2987  0.1342 0.00000  3.636  7.328 25.725 23.395  0.0000  0.0000  0.0000
 1993 009    30    26     86  2.2682  0.0049  1.4318  0.4571  0.1566 0.00000  3.663  7.384 25.431 21.524  0.0000  0.0000  0.0000
 1993 010    31    27    101  2.5695  0.0067  1.5219  0.5357  0.2155 0.00000  3.626  7.405 29.062 23.650  0.0000  0.0000  0.0000
 1993 011    32    28    118  2.9279  0.0084  1.7250  0.6000  0.2716 0.00000  3.597  7.410 30.227 24.994  0.0000  0.0000  0.0000
 1993 012    33    29    137  3.2588  0.0106  1.9080  0.7118  0.3309 0.00000  3.604  7.373 30.927 26.232  0.0000  0.0000  0.0000
 1993 013    34    30    156  3.3575  0.0126  2.0055  0.7452  0.3666 0.00000  3.621  7.326 31.332 26.924  0.0000  0.0000  0.0000
 1993 014    35    31    175  3.3878  0.0147  1.9915  0.7692  0.3604 0.00000  3.610  7.274 29.041 26.245  0.0000  0.0000  0.0000
 1993 015    36    32    208  5.0332  0.0000  2.3766  0.6008  0.5141 1.12091 12.857 15.293 29.671 26.696  0.0000  0.0000  0.0000
 1993 016    37    33    232  4.1704  0.0421  2.5339  0.8973  0.4237 0.00000 11.677 14.142 27.614 25.285  0.0000  0.0000  0.0000
 1993 017    38    34    266  5.8016  0.0312  3.6199  1.2862  0.3658 0.00000 10.477 13.033 22.385 19.984  0.0000  0.0000  0.0000
 1993 018    39    35    304  6.3551  0.0291  3.9994  1.4236  0.3627 0.00000  9.516 12.155 23.008 18.313  0.0000  0.0000  0.0000
 1993 019    40    36    352  7.9192  0.0391  4.9881  1.7706  0.5525 0.00000  8.650 11.349 25.006 21.100  0.0000  0.0000  0.0000
 1993 020    41    37    411  9.5335  0.0484  6.1927  1.9877  0.7974 0.03839  7.948 10.834 28.245 23.408  0.0000  0.0000  0.0000
 1993 021    42    38    480 10.9318  0.0551  7.1442  2.1355  0.9828 0.09017  7.429 10.628 29.693 24.212  0.0000  0.0000  0.0000
 1993 022    43    39    555 12.3742  0.0000  7.4085  2.1870  1.3066 0.46230  7.625 12.080 31.351 26.550  0.0000  0.0000  0.0000
 1993 023    44    40    632 12.8450  0.0000  7.6430  2.2335  1.5358 0.40610  7.698 12.927 32.630 28.044  0.0000  0.0000  0.0000
 1993 024    45    41    723 14.9229  0.0000  8.1899  2.3089  1.8453 1.36710  8.698 16.316 33.095 28.689  0.0000  0.0000  0.0000
 1993 025    46    42    788 11.6324  0.1362  6.8084  2.4694  1.1840 0.27905  8.433 15.988 26.683 24.319  0.0000  0.0000  0.0000
 1993 026    47    43    883 16.1615  0.1474  9.7128  3.2653  1.6671 0.46253  8.229 15.846 29.845 25.332  0.0000  0.0000  0.0000
 1993 027    48    44    934  9.1059  0.1423  5.2649  1.9606  0.9371 0.29382  8.093 15.748 23.844 22.160  0.0000  0.0000  0.0000
 1993 028    49    45   1056 19.7943  0.0000 11.8868  3.3950  1.9335 0.95372  8.307 16.581 28.198 24.868  0.0000  0.0000  0.0000
 1993 029    50    46   1177 19.3765  0.0000 11.6216  3.2708  1.7787 1.09887  8.570 17.482 26.781 23.415  0.0000  0.0000  0.0000
 1993 030    51    47   1326 23.3244  0.0000 13.1821  3.5585  2.1674 2.44429  9.449 20.070 27.824 23.814  0.0000  0.0000  0.0000
 1993 031    52    48   1408 14.8974  0.2777  8.3582  3.0064  1.5636 0.74404  9.362 19.962 24.551 22.904  0.0000  0.0000  0.0000
 1993 032    53    49   1543 22.7109  0.3146 13.5093  4.3084  2.2827 1.21484  9.345 20.040 27.384 24.055  0.0000  0.0000  0.0000
 1993 033    54    50   1685 24.9609  0.3413 14.1639  4.9402  2.4376 1.35274  9.368 20.200 26.852 23.702  0.0000  0.0000  0.0000
 1993 034    55    51   1824 24.7684  0.3633 13.8951  4.9041  2.3996 1.36612  9.413 20.388 26.534 23.098  0.0000  0.0000  0.0000
 1993 035    56    52   1994 27.7784  0.0000 15.1057  4.6270  2.3659 2.86290 10.073 22.182 25.917 21.443  0.0000  0.0000  0.0000
 1993 036    57    53   2160 28.3659  0.4888 16.6610  5.1635  3.0604 1.64147 10.113 22.313 28.640 24.239  0.0000  0.0000  0.0000
 1993 037    58    54   2301 26.0800  0.5253 14.4584  5.0201  3.0347 1.38487 10.138 22.379 29.219 24.282  0.0000  0.0000  0.0000
 1993 038    59    55   2382 16.0340  0.0000  8.4367  3.1681  1.6470 0.69175 10.314 22.743 22.050 19.689  0.0000  0.0000  0.0000
 1993 039    60    56   2425 10.0471  0.2723  5.4331  2.2593  1.1068 0.01343 10.288 22.611 18.893 17.140  0.0000  0.0000  0.0000
 1993 040    61    57   2511 16.9786  0.3700  9.3141  3.6945  1.4280 0.51708 10.285 22.571 20.128 17.482  0.0000  0.0000  0.0000
 1993 041    62    58   2661 26.4400  0.0000 14.7365  5.0055  2.1847 1.41545 10.521 23.107 24.222 19.109  0.0000  0.0000  0.0000
 1993 042    63    59   2825 29.8314  0.5417 16.6734  5.6021  3.0523 1.57377 10.626 23.353 27.343 22.052  0.0000  0.0000  0.0000
 1993 043    64    60   2967 28.3708  0.6668 15.0622  5.6659  3.4236 1.30384 10.672 23.432 28.653 23.649  0.0000  0.0000  0.0000
 1993 044    65    61   3087 25.4821  0.6557 13.4240  5.3578  2.9140 0.75011 10.668 23.367 25.875 22.158  0.0000  0.0000  0.0000
 1993 045    66    62   3219 27.6662  0.6918 14.5470  5.7151  3.3341 0.92053 10.685 23.356 27.925 22.887  0.0000  0.0000  0.0000
 1993 046    67    63   3357 29.1971  0.7276 15.4184  6.0014  3.3097 1.01700 10.717 23.379 26.881 22.236  0.0000  0.0000  0.0000
 1993 047    68    64   3413 15.4027  0.0000  7.9987  2.8021  2.3724 0.40077 10.895 23.680 24.511 21.403  6.2009 20.1192 32.6251
 1993 048    69    65   3454 15.0522  0.7881  8.2948  3.1359  2.3893 0.00000 10.802 23.354 23.638 21.567  6.2061 20.1659 32.5460
 1993 049    70    66   3530 24.2137  0.9039 11.9950  5.4058  3.5225 0.20048 10.711 23.047 27.774 23.882  6.3069 20.3858 31.6963
 1993 050    71    67   3592 21.6034  0.9302 11.0635  4.8422  3.3394 0.00000 10.588 22.654 26.548 23.799  6.3303 20.4455 31.4900
 1993 051    72    68   3658 21.5097  0.8227 10.8206  5.2166  2.7733 0.00000 10.485 22.308 24.184 21.293  6.2740 20.2910 31.9965
 1993 052    73    69   3734 22.7507  0.6594 11.6849  5.8223  2.0933 0.00000 10.412 22.035 21.372 17.519  6.2665 19.4512 32.8835
 1993 053    74    70   3826 26.2788  0.7426 13.5319  6.6686  2.6234 0.00000 10.326 21.724 23.913 18.990  6.2443 19.2830 33.1900
 1993 054    75    71   3921 26.3865  0.7779 13.3190  6.8237  2.7518 0.00000 10.233 21.398 24.042 19.441  6.2278 19.2521 33.3241
 1993 055    76    72   4019 26.9632  0.8379 14.1561  6.7623  3.0344 0.00000 10.131 21.044 24.409 20.451  6.2167 19.3606 33.2847
 1993 056    77    73   4093 23.6079  0.8682 11.7965  6.0976  3.0181 0.00000 10.023 20.675 24.818 20.897  6.2106 19.4760 33.2075
 1993 057    78    74   4170 26.1412  0.8919 12.9190  6.7878  3.3074 0.00000  9.911 20.293 25.505 21.335  6.2085 19.5888 33.1083
 1993 058    79    75   4243 25.9230  0.9451 12.6738  6.6703  3.8533 0.00000  9.786 19.882 28.306 22.997  6.2214 19.7351 32.8813
 1993 059    80    76   4291 21.7801  1.0535 10.2229  5.4598  4.6157 0.00000  9.640 19.414 30.968 26.516  6.2782 19.8525 32.4085
 1993 060    81    77   4342 19.9747  0.8518 10.0565  5.5348  2.8597 0.00000  9.531 19.034 23.942 20.595  6.2636 19.8439 32.5089
 1993 061    82    78   4395 19.5347  0.7319 10.0603  5.6616  2.2586 0.00000  9.444 18.703 21.825 17.767  6.2600 19.5872 32.7879
 1993 062    83    79   4473 21.6966  0.7436 11.0354  6.3019  2.4958 0.00000  9.352 18.359 22.937 18.239  6.2542 19.4259 32.9852
 1993 063    84    80   4529 17.9869  0.4770  9.4142  5.4472  2.0130 0.06219  9.341 18.196 21.076 16.487  6.2871 19.0835 33.1219
 1993 064    85    81   4581 18.3050  0.5531  9.3535  5.1617  2.6101 0.06858  9.317 17.996 23.906 19.175  6.3032 19.0219 33.0832
 1993 065    86    82   4602 13.3825  0.7713  7.0530  3.2052  3.0469 0.03393  9.228 17.648 25.288 22.337  6.3111 19.0860 32.9697
 1993 066    87    83   4608  9.5030  0.8529  5.4003  1.9432  2.8530 0.00597  9.099 17.220 24.102 22.538  6.3104 19.1452 32.9148
 1993 067    88    84   4646 17.5185  0.7108  8.4259  4.5125  3.6707 0.05401  9.015 16.899 27.343 23.648  6.3290 19.2050 32.7385
 1993 068    89    85   4706 19.0088  0.6195  9.1776  5.1184  3.2140 0.05748  8.944 16.622 25.749 21.416  6.3366 19.2356 32.6609
 1993 069    90    86   4770 19.8261  0.5975  9.2389  5.3353  3.5601 0.07010  8.877 16.361 26.945 22.400  6.3494 19.2727 32.5433
 1993 070    91    87   4832 19.5039  0.5888  8.9377  5.2716  3.6406 0.07320  8.806 16.101 27.473 22.788  6.3632 19.3051 32.4249
 1993 071    92    88   4873 14.9758  0.7373  6.9391  3.7967  3.6797 0.03079  8.667 15.708 29.206 23.954  6.3707 19.3431 32.3399
 1993 072    93    89   4903 11.9299  0.6663  5.6793  2.9129  2.9945 0.04212  8.543 15.360 24.760 22.491  6.3763 19.3601 32.2878
 1993 073    94    90   4951 16.3321  0.5803  7.2388  4.2608  3.5255 0.07070  8.447 15.083 27.576 23.392  6.3895 19.3765 32.1892
 1993 074    95    91   4963  8.2692  0.7852  4.0298  1.6449  2.9266 0.00437  8.252 14.611 26.477 23.182  6.3883 19.4004 32.1725
 1993 075    96    92   4968  6.6787  0.7490  3.3187  1.2334  2.6313 0.00285  8.057 14.151 25.655 22.325  6.3862 19.4174 32.1689
 1993 076    97    93   5001 13.0880  0.6722  5.6643  3.0993  3.5421 0.03593  7.891 13.762 28.016 24.616  6.3948 19.4359 32.0966
 1993 077    98    94   5035 13.5692  0.6454  5.6373  3.2872  3.8199 0.04157  7.727 13.389 29.662 25.520  6.4064 19.4508 32.0091
 1993 078    99    95   5071 12.0868  0.5895  5.4163  3.1945  2.7229 0.03116  7.568 13.035 25.687 21.406  6.4067 19.4572 32.0010
 1993 079   100    96   5102  9.5416  0.4392  4.5575  2.8364  1.6670 0.04240  7.456 12.786 19.814 16.666  6.4125 19.3795 32.0423
 1993 080   101    97   5132  9.7952  0.5008  4.5815  2.8188  1.9328 0.02959  7.313 12.480 22.587 17.920  6.4138 19.3373 32.0763
 1993 081   102    98   5167 11.4902  0.4848  5.0239  3.1870  2.4099 0.04547  7.178 12.196 24.778 20.113  6.4163 19.3257 32.0725
 1993 082   103    99   5198 11.0418  0.5252  4.7080  2.9659  2.6280 0.03618  7.020 11.872 26.415 21.224  6.4178 19.3287 32.0601
 1993 083   104   100   5218  8.7604  0.5922  3.6053  2.1267  2.7831 0.02192  6.825 11.481 26.486 22.922  6.4193 19.3398 32.0395
 1993 084   105   101   5244  9.7086  0.5075  4.0233  2.5380  2.5547 0.03397  6.660 11.157 26.248 21.382  6.4211 19.3420 32.0262
 1993 085   106   102   5265  8.7907  0.5130  3.5632  2.2204  2.5636 0.02992  6.487 10.821 26.556 21.729  6.4228 19.3457 32.0118
 1993 086   107   103   5292  8.7424  0.0000  3.2516  1.1776  2.7493 0.48680  6.668 11.298 26.973 22.819  6.3767 19.4522 32.1934
 1993 087   108   104   5159  7.7518  0.6218  3.2175  1.6682  2.6081 0.00000  6.364 10.241 26.761 22.399  6.3574 19.5013 32.2649
 1993 088   109   105   5039  5.2825  0.5366  1.9265  1.0364  2.5404 0.00000  6.061  9.302 26.885 23.406  6.3571 19.5096 32.2587
 1993 089   110   106   4940  3.9984  0.4461  1.3749  0.6683  2.2299 0.00000  5.776  8.492 25.800 22.569  6.3565 19.5149 32.2570
 1993 090   111   107   4858  2.9116  0.3810  0.8629  0.3246  2.0726 0.00000  5.505  7.787 26.032 22.277  6.3561 19.5181 32.2566
 1993 091   112   108   4789  2.4127  0.3328  0.5662  0.1624  2.0356 0.00000  5.243  7.171 26.743 22.431  6.3558 19.5202 32.2561
 1993 092   113   109   4730  1.7146  0.3041  0.0000  0.0000  2.2296 0.00000  4.975  6.620 28.582 24.168  6.3558 19.5202 32.2561
 1993 093   114   110   4681  0.7785  0.2651  0.0000  0.0000  1.8989 0.00000  4.726  6.142 25.862 22.817  6.3558 19.5202 32.2561
 1993 094   115   111   4641  0.8337  0.2273  0.0000  0.0000  1.6234 0.00000  4.500  5.733 23.733 21.041  6.3558 19.5202 32.2561
 1993 095   116   112   4608  0.2875  0.1815  0.0000  0.0000  1.0526 0.00000  4.311  5.399 17.958 16.701  6.3558 19.5202 32.2561
 1993 096   117   113   4582  0.3340  0.1600  0.0000  0.0000  0.9056 0.00000  4.139  5.110 17.069 15.255  6.3558 19.5202 32.2561
 1993 097   118   114   4559  0.3814  0.1671  0.0000  0.0000  1.2733 0.00000  3.953  4.830 21.160 18.754  6.3558 19.5202 32.2561
 1993 098   119   115   4541  0.3055  0.1317  0.0000  0.0000  0.7890 0.00000  3.802  4.605 17.835 13.654  6.3558 19.5202 32.2561

*DSSAT Cropping System Model Ver. 4.6.1.000 -release      DEC 14, 2016; 12:37:38
                                                                                
*RUN   4        : UYSB                      CRGRO046 UYSB1074    1              
 MODEL          : CRGRO046 - Soybean                                            
 EXPERIMENT     : UYSB1074 SN late to create DSS                                
 DATA PATH      :                                                               
 TREATMENT  1   : UYSB                      CRGRO046                            
  
@YEAR DOY   DAS   DAP   TWAD    PHAD    CMAD    CGRD    GRAD    MRAD    CHAD   CL%D   CS%D   TGNN   TGAV    GN%D    GL%D    GC%D
 1993 349     4     0      0  0.0000  0.0000  0.0000  0.0000  0.0000 0.00000  0.000  0.000 20.741 18.699  0.0000  0.0000  0.0000
 1993 350     5     1      0  0.0000  0.0000  0.0000  0.0000  0.0000 0.00000  0.000  0.000 22.009 19.071  0.0000  0.0000  0.0000
 1993 351     6     2      0  0.0000  0.0000  0.0000  0.0000  0.0000 0.00000  0.000  0.000 26.252 20.734  0.0000  0.0000  0.0000
 1993 352     7     3      0  0.0000  0.0000  0.0000  0.0000  0.0000 0.00000  0.000  0.000 27.411 22.861  0.0000  0.0000  0.0000
 1993 353     8     4      0  0.0000  0.0000  0.0000  0.0000  0.0000 0.00000  0.000  0.000 28.118 23.317  0.0000  0.0000  0.0000
 1993 354     9     5      8  0.0000  0.0004  0.0003  0.0001  0.0000 0.00000  3.954  7.903 20.363 17.568  0.0000  0.0000  0.0000
 1993 355    10     6      9  0.1493  0.0003  0.0952  0.0337  0.0074 0.00000  3.922  7.844 21.319 15.981  0.0000  0.0000  0.0000
 1993 356    11     7     10  0.2078  0.0006  0.1306  0.0448  0.0154 0.00000  3.875  7.761 27.120 21.244  0.0000  0.0000  0.0000
 1993 357    12     8     11  0.2340  0.0008  0.1443  0.0488  0.0224 0.00000  3.822  7.674 30.373 24.640  0.0000  0.0000  0.0000
 1993 358    13     9     13  0.2694  0.0009  0.1667  0.0549  0.0265 0.00000  3.770  7.600 30.031 25.266  0.0000  0.0000  0.0000
 1993 359    14    10     14  0.2442  0.0011  0.1489  0.0485  0.0283 0.00000  3.712  7.513 30.884 26.799  0.0000  0.0000  0.0000
 1993 360    15    11     16  0.2927  0.0012  0.1829  0.0579  0.0290 0.00000  3.662  7.456 28.056 24.974  0.0000  0.0000  0.0000
 1993 361    16    12     17  0.1703  0.0010  0.1077  0.0335  0.0160 0.00000  3.617  7.391 22.681 21.283  0.0000  0.0000  0.0000
 1993 362    17    13     19  0.3433  0.0011  0.2219  0.0678  0.0258 0.00000  3.585  7.385 25.062 21.192  0.0000  0.0000  0.0000
 1993 363    18    14     21  0.2940  0.0010  0.1794  0.0722  0.0180 0.00000  3.601  7.344 20.407 18.006  0.0000  0.0000  0.0000
 1993 364    19    15     23  0.4407  0.0011  0.2725  0.1029  0.0263 0.00000  3.622  7.336 23.480 18.320  0.0000  0.0000  0.0000
 1993 365    20    16     27  0.5629  0.0014  0.3490  0.1247  0.0394 0.00000  3.627  7.337 25.925 20.621  0.0000  0.0000  0.0000
 1994 001    21    17     31  0.6518  0.0018  0.4046  0.1399  0.0505 0.00000  3.619  7.341 26.544 22.100  0.0000  0.0000  0.0000
 1994 002    22    18     35  0.6575  0.0016  0.4185  0.1435  0.0393 0.00000  3.615  7.365 22.690 18.640  0.0000  0.0000  0.0000
 1994 003    23    19     39  0.7141  0.0017  0.4487  0.1643  0.0410 0.00000  3.623  7.375 22.960 17.763  0.0000  0.0000  0.0000
 1994 004    24    20     45  0.9015  0.0024  0.5602  0.2045  0.0619 0.00000  3.626  7.379 25.518 20.213  0.0000  0.0000  0.0000
 1994 005    25    21     51  1.0243  0.0031  0.6299  0.2253  0.0855 0.00000  3.615  7.372 28.016 22.711  0.0000  0.0000  0.0000
 1994 006    26    22     55  0.7052  0.0041  0.4203  0.1491  0.0820 0.00000  3.577  7.308 29.622 25.142  0.0000  0.0000  0.0000
 1994 007    27    23     61  1.0347  0.0043  0.6278  0.2208  0.1037 0.00000  3.553  7.287 28.755 24.632  0.0000  0.0000  0.0000
 1994 008    28    24     68  1.2030  0.0042  0.7591  0.2484  0.0962 0.00000  3.579  7.283 24.558 22.049  0.0000  0.0000  0.0000
 1994 009    29    25     78  1.6650  0.0041  1.0690  0.3433  0.1063 0.00000  3.607  7.330 22.630 20.049  0.0000  0.0000  0.0000
 1994 010    30    26     89  1.7307  0.0039  1.0751  0.3755  0.0961 0.00000  3.605  7.368 22.446 17.786  0.0000  0.0000  0.0000
 1994 011    31    27    102  2.1324  0.0055  1.3410  0.4440  0.1435 0.00000  3.599  7.395 25.943 19.957  0.0000  0.0000  0.0000
 1994 012    32    28    115  2.2665  0.0072  1.4093  0.4674  0.1792 0.00000  3.588  7.392 27.197 21.892  0.0000  0.0000  0.0000
 1994 013    33    29    130  2.4174  0.0088  1.4915  0.5040  0.2018 0.00000  3.575  7.373 26.595 22.617  0.0000  0.0000  0.0000
 1994 014    34    30    147  2.7887  0.0097  1.7251  0.5939  0.2347 0.00000  3.563  7.364 27.817 22.585  0.0000  0.0000  0.0000
 1994 015    35    31    166  3.2090  0.0109  1.9924  0.6800  0.2688 0.00000  3.550  7.363 28.355 22.442  0.0000  0.0000  0.0000
 1994 016    36    32    186  3.2792  0.0112  2.0741  0.6905  0.2361 0.00000  3.536  7.366 24.837 20.465  0.0000  0.0000  0.0000
 1994 017    37    33    208  3.7355  0.0132  2.2591  0.8838  0.2823 0.00000  3.561  7.333 26.061 20.972  0.0000  0.0000  0.0000
 1994 018    38    34    233  4.4257  0.0177  2.6274  1.0256  0.4139 0.00000  3.571  7.287 28.385 24.157  0.0000  0.0000  0.0000
 1994 019    39    35    262  5.1591  0.0203  3.0450  1.1859  0.5120 0.00000  3.576  7.249 29.790 25.060  0.0000  0.0000  0.0000
 1994 020    40    36    295  5.8864  0.0237  3.4197  1.3286  0.6713 0.00000  3.575  7.212 32.774 26.970  0.0000  0.0000  0.0000
 1994 021    41    37    336  7.0154  0.0229  4.3589  1.5831  0.5472 0.00000  3.619  7.209 25.343 22.334  0.0000  0.0000  0.0000
 1994 022    42    38    382  7.9402  0.0282  4.8773  1.7595  0.6991 0.00000  3.648  7.197 27.899 23.743  0.0000  0.0000  0.0000
 1994 023    43    39    413  5.6492  0.0296  3.1780  1.3782  0.5018 0.00000  3.613  7.151 24.632 22.124  0.0000  0.0000  0.0000
 1994 024    44    40    439  4.8631  0.0349  2.8068  1.1087  0.5317 0.01373  3.600  7.160 26.274 23.623  0.0000  0.0000  0.0000
 1994 025    45    41    487  8.2780  0.0345  5.0743  1.8120  0.6913 0.05751  3.709  7.420 24.711 22.418  0.0000  0.0000  0.0000
 1994 026    46    42    564 12.1946  0.0000  7.4082  2.1694  0.9444 0.65874  4.655 10.159 25.430 22.421  0.0000  0.0000  0.0000
 1994 027    47    43    661 14.5614  0.0000  8.0678  2.2430  0.9700 2.00307  6.874 16.503 25.534 20.233  0.0000  0.0000  0.0000
 1994 028    48    44    748 15.6108  0.1046  8.0314  3.9516  1.3377 0.24486  6.555 15.872 28.442 23.178  0.0000  0.0000  0.0000
 1994 029    49    45    846 17.0452  0.1292  9.5394  3.8298  1.8108 0.36023  6.419 15.494 31.337 26.073  0.0000  0.0000  0.0000
 1994 030    50    46    924 14.0925  0.1478  7.8417  3.1237  1.5828 0.35923  6.364 15.312 29.437 25.713  0.0000  0.0000  0.0000
 1994 031    51    47   1045 19.8918  0.1500 12.5995  3.7600  1.9975 0.66529  6.499 15.427 30.513 24.964  0.0000  0.0000  0.0000
 1994 032    52    48   1176 21.4200  0.0000 12.2808  3.4104  2.4792 1.56595  7.199 17.226 32.134 26.908  0.0000  0.0000  0.0000
 1994 033    53    49   1248 13.5017  0.2253  7.6989  2.6473  1.6699 0.53551  7.208 17.160 28.939 25.002  0.0000  0.0000  0.0000
 1994 034    54    50   1332 15.2620  0.2311  8.7082  3.0395  1.6751 0.69322  7.264 17.224 26.819 23.848  0.0000  0.0000  0.0000
 1994 035    55    51   1439 19.0096  0.2509 10.7137  3.8232  2.0282 0.94593  7.371 17.432 27.988 24.194  0.0000  0.0000  0.0000
 1994 036    56    52   1573 22.3678  0.1799 12.9132  4.7524  1.3858 1.18414  7.534 17.820 21.155 18.042  0.0000  0.0000  0.0000
 1994 037    57    53   1718 22.2223  0.1610 14.0296  4.2787  1.2446 1.30435  7.721 18.253 22.074 15.777  0.0000  0.0000  0.0000
 1994 038    58    54   1905 28.1986  0.0000 14.4394  3.8853  2.0919 5.21347  9.326 22.566 25.952 19.620  0.0000  0.0000  0.0000
 1994 039    59    55   2080 27.7821  0.0000 13.9986  3.7247  2.8716 4.74542 10.581 25.768 28.679 23.671  0.0000  0.0000  0.0000
 1994 040    60    56   2156 15.0314  0.5246  8.6360  2.7972  1.8763 0.77645 10.534 25.501 24.644 22.284  0.0000  0.0000  0.0000
 1994 041    61    57   2244 17.2879  0.5572  9.8802  3.2295  2.1354 0.91097 10.507 25.280 25.510 22.829  0.0000  0.0000  0.0000
 1994 042    62    58   2372 23.1786  0.5453 13.3877  4.3388  2.3853 1.32231 10.525 25.172 25.203 22.021  0.0000  0.0000  0.0000
 1994 043    63    59   2520 26.2251  0.0258 14.6532  4.4980  2.7773 1.56158 10.755 25.561 26.055 22.766  0.0000  0.0000  0.0000
 1994 044    64    60   2653 24.6835  0.5867 14.0199  4.7600  2.4615 1.28316 10.784 25.501 24.565 21.313  0.0000  0.0000  0.0000
 1994 045    65    61   2750 19.8877  0.0000  9.6396  3.4361  2.6698 1.72871 11.228 26.498 26.449 23.412  0.0000  0.0000  0.0000
 1994 046    66    62   2864 23.6154  0.7570 13.0510  4.6646  2.9822 0.82990 11.209 26.312 26.419 23.561  0.0000  0.0000  0.0000
 1994 047    67    63   2934 16.5660  0.5472  8.9749  3.6188  2.0430 0.01742 11.163 26.087 22.922 20.565  0.0000  0.0000  0.0000
 1994 048    68    64   3014 17.2882  0.1841  9.4066  3.7180  1.7846 0.07559 11.208 26.084 20.949 18.663  0.0000  0.0000  0.0000
 1994 049    69    65   3187 30.0728  0.0000 11.7778  4.5503  2.7835 7.00705 12.880 30.372 23.883 20.491  0.0000  0.0000  0.0000
 1994 050    70    66   3342 29.6302  0.5911 16.5827  5.6759  2.9646 1.25994 12.968 30.387 26.361 20.542  0.0000  0.0000  0.0000
 1994 051    71    67   3466 29.4421  0.9774 15.2208  6.2782  3.4815 0.89017 12.939 30.148 27.443 22.553  6.2562 20.4092 31.9898
 1994 052    72    68   3566 26.3805  1.0850 13.8678  5.6911  3.6653 0.30987 12.848 29.786 28.356 23.753  6.3408 20.4932 31.3765
 1994 053    73    69   3615 15.0992  0.7578  8.1835  2.9848  2.9618 0.10566 12.824 29.579 26.426 23.893  6.3546 20.4980 31.2857
 1994 054    74    70   3656 14.6173  1.0113  7.8766  3.3032  2.3755 0.00000 12.715 29.191 23.011 21.156  6.2739 20.2643 32.0240
 1994 055    75    71   3738 24.6644  1.1397 12.3022  5.9517  3.4189 0.00000 12.585 28.746 26.036 23.076  6.2814 20.3530 31.8879
 1994 056    76    72   3825 25.2911  1.1323 12.8202  6.1183  3.4044 0.00000 12.455 28.301 26.048 22.661  6.2750 20.3787 31.9027
 1994 057    77    73   3896 22.3746  1.0602 11.4222  5.5534  2.9239 0.00000 12.337 27.885 25.028 21.143  6.2500 20.2715 32.1657
 1994 058    78    74   3980 25.2488  1.1551 13.2722  6.1432  3.4701 0.00000 12.204 27.426 26.091 22.599  6.2526 20.3123 32.1092
 1994 059    79    75   4004 11.6883  0.9724  6.5386  3.1627  2.0218 0.00000 12.102 27.042 21.288 19.187  6.2351 19.9739 32.5570
 1994 060    80    76   4092 24.5059  0.9700 13.1871  6.3949  2.6369 0.00000 12.011 26.658 23.147 19.123  6.2240 19.7454 32.8544
 1994 061    81    77   4157 20.0815  0.7948 10.6803  5.6965  1.8281 0.00000 11.947 26.346 20.360 15.697  6.2549 19.0364 33.3704
 1994 062    82    78   4244 26.1604  1.0285 13.1142  7.0473  3.1377 0.00000 11.843 25.927 26.349 20.086  6.2407 19.1286 33.3672
 1994 063    83    79   4325 26.0825  1.1289 12.8832  6.8946  3.7716 0.00000 11.719 25.456 28.364 22.388  6.2416 19.3406 33.1493
 1994 064    84    80   4388 24.8958  1.1483 12.2026  6.7618  3.6706 0.00000 11.589 24.968 26.984 22.432  6.2428 19.5059 32.9768
 1994 065    85    81   4450 22.9376  1.0823 11.3405  6.4791  3.2589 0.00000 11.467 24.499 25.640 21.231  6.2357 19.5881 32.9387
 1994 066    86    82   4513 24.1679  1.0942 11.8110  6.8593  3.4969 0.00000 11.340 24.012 26.080 21.779  6.2329 19.6777 32.8666
 1994 067    87    83   4576 22.2745  0.6607 10.9749  6.3714  2.9832 0.10438 11.341 23.810 24.697 20.007  6.2673 19.5731 32.7565
 1994 068    88    84   4651 21.6265  0.7218 10.7603  6.2465  2.9654 0.08482 11.317 23.554 24.417 20.013  6.2879 19.5045 32.6961
 1994 069    89    85   4710 21.4664  0.7604 10.3258  5.9555  3.5108 0.09566 11.286 23.281 26.920 21.879  6.3125 19.5083 32.5384
 1994 070    90    86   4773 22.3915  0.7756 10.5197  6.2049  3.8649 0.09424 11.243 22.989 28.405 22.691  6.3363 19.5273 32.3709
 1994 071    91    87   4829 18.6459  0.8520  8.9856  5.0320  3.5317 0.07041 11.165 22.627 26.878 22.443  6.3499 19.5443 32.2689
 1994 072    92    88   4888 20.3415  0.8855  9.3137  5.4423  4.3219 0.07408 11.071 22.238 29.829 24.650  6.3739 19.5661 32.0973
 1994 073    93    89   4934 17.5844  0.9068  7.9647  4.4684  4.3007 0.06967 10.958 21.823 30.384 25.350  6.3968 19.5795 31.9406
 1994 074    94    90   4958 11.4482  1.0538  5.7727  2.7106  3.3383 0.01325 10.771 21.263 26.927 23.737  6.3981 19.6064 31.9056
 1994 075    95    91   4986 12.3445  0.9516  5.9341  3.0192  3.3588 0.03718 10.607 20.767 26.971 23.677  6.4044 19.6211 31.8512
 1994 076    96    92   5015 12.6408  0.9848  5.9885  3.1436  3.4866 0.02696 10.417 20.229 27.147 24.243  6.4099 19.6396 31.7987
 1994 077    97    93   5048 12.6429  0.8339  5.9830  3.2906  2.9543 0.04662 10.262 19.785 24.456 22.226  6.4139 19.6432 31.7700
 1994 078    98    94   5071  9.3176  0.8183  4.6758  2.3472  2.3412 0.02728 10.089 19.322 22.335 20.283  6.4134 19.6317 31.7844
 1994 079    99    95   5114 14.4391  0.7745  6.6588  3.8821  2.9084 0.04750  9.928 18.894 25.829 21.443  6.4154 19.6299 31.7738
 1994 080   100    96   5124  5.2809  0.7162  3.0655  1.3836  1.3863 0.00762  9.753 18.457 17.811 15.725  6.4166 19.5650 31.8314
 1994 081   101    97   5159 11.9002  0.7405  5.5894  3.1859  2.4311 0.03774  9.579 18.024 22.854 20.239  6.4170 19.5518 31.8421
 1994 082   102    98   5206 14.0236  0.6607  6.5330  4.0943  2.3338 0.04559  9.423 17.642 24.214 18.811  6.4182 19.5083 31.8780
 1994 083   103    99   5245 13.5219  0.6922  5.8867  3.6727  2.9268 0.05531  9.255 17.241 27.186 21.752  6.4223 19.5082 31.8522
 1994 084   104   100   5266  7.5268  0.6083  3.7134  2.2280  1.5452 0.03524  9.095 16.870 19.105 16.425  6.4269 19.4442 31.8876
 1994 085   105   101   5296  9.1789  0.5560  4.4489  2.8069  1.5136 0.04275  8.949 16.536 19.469 15.699  6.4337 19.3532 31.9363
 1994 086   106   102   5331 10.8443  0.6500  5.0686  3.1767  1.9775 0.02892  8.761 16.119 22.698 17.981  6.4338 19.3141 31.9746
 1994 087   107   103   5358 11.0384  0.7220  4.5590  2.8469  3.0409 0.03728  8.546 15.652 28.412 23.136  6.4372 19.3248 31.9427
 1994 088   108   104   5354  3.7751  0.7218  1.8703  0.8302  1.6872 0.00077  8.307 15.143 21.410 18.388  6.4354 19.3171 31.9614
 1994 089   109   105   5376  7.0033  0.5451  3.3994  2.1429  1.3302 0.02643  8.134 14.778 18.952 15.019  6.4403 19.2436 32.0048
 1994 090   110   106   5396  6.4854  0.5274  3.1697  1.9863  1.2453 0.02399  7.962 14.419 19.043 14.306  6.4458 19.1641 32.0498
 1994 091   111   107   5421  7.1136  0.3662  3.5234  1.4187  1.4769 0.07854  7.869 14.228 20.987 15.764  6.4020 19.2034 32.2842
 1994 092   112   108   5302  8.4457  0.6839  3.9263  1.8598  2.1482 0.00000  7.544 13.126 25.230 19.521  6.3639 19.2748 32.4511
 1994 093   113   109   5185  4.2597  0.5997  1.7139  0.8704  2.0210 0.00000  7.217 12.134 25.507 20.573  6.3616 19.2803 32.4594
 1994 094   114   110   5081  2.3502  0.5625  0.4808  0.1379  2.3113 0.00000  6.866 11.212 26.416 23.688  6.3616 19.2827 32.4573
 1994 095   115   111   4996  1.6289  0.4640  0.1450  0.0416  1.9113 0.00000  6.541 10.419 24.785 21.816  6.3615 19.2833 32.4573
 1994 096   116   112   4929  1.0003  0.3433  0.2259  0.0648  1.0796 0.00000  6.283  9.785 17.741 16.066  6.3615 19.2804 32.4601
 1994 097   117   113   4877  1.7308  0.3083  0.6901  0.2705  1.1028 0.00000  6.041  9.222 19.183 16.045  6.3615 19.2716 32.4689
 1994 098   118   114   4834  0.8179  0.2481  0.2798  0.0803  0.7717 0.00000  5.831  8.754 17.474 12.597  6.3621 19.2626 32.4746
 1994 099   119   115   4796  0.8449  0.2582  0.0282  0.0081  1.0701 0.00000  5.594  8.300 19.944 16.185  6.3621 19.2622 32.4749
 1994 100   120   116   4765  0.7290  0.2260  0.0569  0.0163  0.8908 0.00000  5.379  7.903 17.890 14.622  6.3621 19.2611 32.4758
 1994 101   121   117   4739  0.5707  0.2053  0.0000  0.0000  0.8395 0.00000  5.176  7.549 18.299 13.922  6.3621 19.2611 32.4758
 1994 102   122   118   4717  0.5040  0.1985  0.0000  0.0000  0.9181 0.00000  4.973  7.218 19.506 14.786  6.3621 19.2611 32.4758
 1994 103   123   119   4697  0.3940  0.1806  0.0000  0.0000  0.8549 0.00000  4.785  6.920 19.778 13.710  6.3621 19.2611 32.4758

*DSSAT Cropping System Model Ver. 4.6.1.000 -release      DEC 14, 2016; 12:37:38
                                                                                
*RUN   5        : UYSB                      CRGRO046 UYSB1074    1              
 MODEL          : CRGRO046 - Soybean                                            
 EXPERIMENT     : UYSB1074 SN late to create DSS                                
 DATA PATH      :                                                               
 TREATMENT  1   : UYSB                      CRGRO046                            
  
@YEAR DOY   DAS   DAP   TWAD    PHAD    CMAD    CGRD    GRAD    MRAD    CHAD   CL%D   CS%D   TGNN   TGAV    GN%D    GL%D    GC%D
 1994 349     4     0      0  0.0000  0.0000  0.0000  0.0000  0.0000 0.00000  0.000  0.000 28.309 23.759  0.0000  0.0000  0.0000
 1994 350     5     1      0  0.0000  0.0000  0.0000  0.0000  0.0000 0.00000  0.000  0.000 25.876 22.579  0.0000  0.0000  0.0000
 1994 351     6     2      0  0.0000  0.0000  0.0000  0.0000  0.0000 0.00000  0.000  0.000 26.484 22.399  0.0000  0.0000  0.0000
 1994 352     7     3      0  0.0000  0.0000  0.0000  0.0000  0.0000 0.00000  0.000  0.000 23.385 18.763  0.0000  0.0000  0.0000
 1994 353     8     4      0  0.0000  0.0000  0.0000  0.0000  0.0000 0.00000  0.000  0.000 25.818 21.554  0.0000  0.0000  0.0000
 1994 354     9     5      8  0.0000  0.0006  0.0004  0.0002  0.0000 0.00000  3.929  7.852 28.012 23.461  0.0000  0.0000  0.0000
 1994 355    10     6      9  0.1765  0.0006  0.1153  0.0353  0.0159 0.00000  3.889  7.745 27.657 24.039  0.0000  0.0000  0.0000
 1994 356    11     7     10  0.2012  0.0007  0.1236  0.0429  0.0179 0.00000  3.831  7.664 28.932 23.630  0.0000  0.0000  0.0000
 1994 357    12     8     11  0.2534  0.0008  0.1546  0.0526  0.0255 0.00000  3.776  7.593 30.752 25.772  0.0000  0.0000  0.0000
 1994 358    13     9     13  0.2686  0.0010  0.1642  0.0541  0.0291 0.00000  3.725  7.529 31.892 26.482  0.0000  0.0000  0.0000
 1994 359    14    10     15  0.3177  0.0011  0.1929  0.0624  0.0380 0.00000  3.675  7.473 33.238 28.222  0.0000  0.0000  0.0000
 1994 360    15    11     17  0.3462  0.0012  0.2168  0.0681  0.0339 0.00000  3.632  7.439 29.770 25.112  0.0000  0.0000  0.0000
 1994 361    16    12     19  0.3542  0.0013  0.2094  0.0823  0.0361 0.00000  3.639  7.362 30.283 25.123  0.0000  0.0000  0.0000
 1994 362    17    13     21  0.3586  0.0016  0.2064  0.0826  0.0417 0.00000  3.623  7.286 31.442 26.712  0.0000  0.0000  0.0000
 1994 363    18    14     24  0.5543  0.0017  0.3289  0.1193  0.0590 0.00000  3.614  7.275 31.261 26.853  0.0000  0.0000  0.0000
 1994 364    19    15     28  0.6452  0.0020  0.3843  0.1402  0.0697 0.00000  3.600  7.276 30.780 27.232  0.0000  0.0000  0.0000
 1994 365    20    16     32  0.7946  0.0022  0.4703  0.1814  0.0793 0.00000  3.607  7.283 31.252 26.020  0.0000  0.0000  0.0000
 1995 001    21    17     38  0.9769  0.0027  0.5743  0.2127  0.1129 0.00000  3.602  7.305 33.870 28.423  0.0000  0.0000  0.0000
 1995 002    22    18     44  1.0401  0.0033  0.6122  0.2194  0.1271 0.00000  3.584  7.316 34.102 29.013  0.0000  0.0000  0.0000
 1995 003    23    19     51  1.2266  0.0038  0.7186  0.2692  0.1422 0.00000  3.579  7.314 33.034 28.303  0.0000  0.0000  0.0000
 1995 004    24    20     58  1.2968  0.0043  0.7859  0.2713  0.1423 0.00000  3.604  7.304 31.626 27.145  0.0000  0.0000  0.0000
 1995 005    25    21     68  1.6711  0.0050  0.9851  0.3667  0.1752 0.00000  3.586  7.323 30.852 26.981  0.0000  0.0000  0.0000
 1995 006    26    22     80  1.9854  0.0055  1.2183  0.4139  0.1784 0.00000  3.573  7.362 28.870 24.783  0.0000  0.0000  0.0000
 1995 007    27    23     94  2.3934  0.0061  1.4600  0.5138  0.2071 0.00000  3.579  7.388 29.956 23.970  0.0000  0.0000  0.0000
 1995 008    28    24    106  2.1839  0.0083  1.3022  0.4640  0.2431 0.00000  3.558  7.361 31.710 26.943  0.0000  0.0000  0.0000
 1995 009    29    25    119  1.9864  0.0067  1.2556  0.4257  0.1365 0.00000  3.542  7.368 23.028 19.909  0.0000  0.0000  0.0000
 1995 010    30    26    137  2.9506  0.0066  1.8883  0.6347  0.1662 0.00000  3.545  7.413 22.813 18.333  0.0000  0.0000  0.0000
 1995 011    31    27    152  2.4654  0.0088  1.5022  0.5883  0.1686 0.00000  3.560  7.379 23.103 19.662  0.0000  0.0000  0.0000
 1995 012    32    28    174  3.6852  0.0101  2.2443  0.8773  0.2523 0.00000  3.587  7.370 26.153 20.203  0.0000  0.0000  0.0000
 1995 013    33    29    196  3.7885  0.0147  2.2516  0.8782  0.3507 0.00000  3.587  7.325 28.519 24.075  0.0000  0.0000  0.0000
 1995 014    34    30    222  4.6335  0.0183  2.7102  1.0545  0.4985 0.00000  3.582  7.281 30.665 26.615  0.0000  0.0000  0.0000
 1995 015    35    31    254  5.5354  0.0196  3.3764  1.2219  0.5510 0.00000  3.608  7.259 30.509 25.527  0.0000  0.0000  0.0000
 1995 016    36    32    278  4.2273  0.0190  2.4686  1.0140  0.3468 0.00000  3.589  7.223 23.941 21.684  0.0000  0.0000  0.0000
 1995 017    37    33    321  7.3585  0.0219  4.5561  1.6592  0.5661 0.00000  3.629  7.233 25.962 22.450  0.0000  0.0000  0.0000
 1995 018    38    34    371  8.1147  0.0248  5.2857  1.7327  0.6105 0.00000  3.663  7.244 25.341 22.044  0.0000  0.0000  0.0000
 1995 019    39    35    436 10.5519  0.0300  6.8246  2.2470  0.8446 0.00000  3.693  7.263 28.039 22.915  0.0000  0.0000  0.0000
 1995 020    40    36    500 11.6583  0.0410  6.0969  2.9035  1.1662 0.03636  3.667  7.410 30.324 25.952  0.0000  0.0000  0.0000
 1995 021    41    37    577 13.4020  0.0463  7.6644  3.0829  1.2682 0.09666  3.760  7.753 29.593 25.150  0.0000  0.0000  0.0000
 1995 022    42    38    663 14.8518  0.0565  8.8401  3.2074  1.4436 0.17280  3.944  8.232 29.527 25.443  0.0000  0.0000  0.0000
 1995 023    43    39    750 14.8931  0.0691  9.0582  3.0438  1.5642 0.23900  4.144  8.749 30.399 25.992  0.0000  0.0000  0.0000
 1995 024    44    40    843 15.4824  0.0821  9.6894  3.0643  1.5278 0.32736  4.367  9.334 27.660 24.974  0.0000  0.0000  0.0000
 1995 025    45    41    948 18.5171  0.0939  9.8463  4.3558  1.8296 0.40836  4.513  9.924 29.608 24.987  0.0000  0.0000  0.0000
 1995 026    46    42   1076 21.9985  0.1021 12.7819  4.6710  2.1021 0.61351  4.798 10.699 31.126 24.249  0.0000  0.0000  0.0000
 1995 027    47    43   1190 19.7981  0.1274 11.5127  4.1467  1.8746 0.63680  5.036 11.331 28.357 23.629  0.0000  0.0000  0.0000
 1995 028    48    44   1356 25.3098  0.0000 14.6092  3.9963  1.8356 2.72732  6.340 14.976 25.192 20.823  0.0000  0.0000  0.0000
 1995 029    49    45   1513 23.5414  0.1560 15.5015  4.4524  1.5522 1.03989  6.525 15.377 24.023 18.723  0.0000  0.0000  0.0000
 1995 030    50    46   1671 27.1084  0.2204 15.5453  5.7390  2.2305 1.18657  6.687 15.761 26.961 21.519  0.0000  0.0000  0.0000
 1995 031    51    47   1846 28.7171  0.2869 17.4835  5.3157  2.9664 1.43170  6.883 16.197 29.913 24.364  0.0000  0.0000  0.0000
 1995 032    52    48   1939 16.6200  0.2686  9.6075  3.3074  1.6300 0.85228  6.969 16.378 24.444 20.506  0.0000  0.0000  0.0000
 1995 033    53    49   2128 28.6177  0.0000 15.5152  4.1058  2.0110 4.42093  8.183 19.696 24.617 18.603  0.0000  0.0000  0.0000
 1995 034    54    50   2333 30.9827  0.0000 15.8317  4.1383  2.4412 5.76787  9.609 23.486 26.110 19.847  0.0000  0.0000  0.0000
 1995 035    55    51   2529 31.1684  0.0000 16.0226  4.2294  3.2454 4.92486 10.638 26.081 29.432 22.990  0.0000  0.0000  0.0000
 1995 036    56    52   2714 30.7426  0.6224 18.6376  5.6669  2.9529 1.87175 10.591 25.793 26.583 21.788  0.0000  0.0000  0.0000
 1995 037    57    53   2894 32.8594  0.6996 18.3180  6.4214  3.4675 1.98878 10.565 25.576 28.048 22.931  0.0000  0.0000  0.0000
 1995 038    58    54   3074 32.9821  0.7391 18.4121  6.4287  3.5819 2.00292 10.564 25.430 28.255 22.925  0.0000  0.0000  0.0000
 1995 039    59    55   3233 29.6040  0.8040 16.7604  5.6260  3.5707 1.70991 10.562 25.294 28.379 23.371  0.0000  0.0000  0.0000
 1995 040    60    56   3334 21.0177  0.7742 11.8626  4.0312  2.6523 0.81990 10.538 25.119 23.973 21.684  0.0000  0.0000  0.0000
 1995 041    61    57   3442 22.9467  0.8892 12.8722  4.3753  3.2935 0.86719 10.506 24.918 27.091 23.622  0.0000  0.0000  0.0000
 1995 042    62    58   3612 32.1592  0.0000 16.9796  5.5442  4.0716 2.06246 10.822 25.561 28.251 23.961  0.0000  0.0000  0.0000
 1995 043    63    59   3716 23.8213  0.1723 12.1857  4.4477  3.8265 0.58876 10.946 25.708 28.423 24.813  0.0000  0.0000  0.0000
 1995 044    64    60   3797 21.4622  1.0235 11.3254  4.4780  3.5343 0.00000 10.849 25.350 27.097 24.167  0.0000  0.0000  0.0000
 1995 045    65    61   3913 27.2408  1.0134 14.2092  5.6504  3.9249 0.48318 10.786 25.091 26.852 24.065  0.0000  0.0000  0.0000
 1995 046    66    62   4036 29.4137  1.0384 15.5621  5.9339  4.0650 0.69647 10.752 24.888 27.324 23.751  0.0000  0.0000  0.0000
 1995 047    67    63   4126 24.5063  0.8805 13.1681  5.0403  3.6204 0.04118 10.696 24.621 26.141 23.105  6.2940 20.4776 31.6850
 1995 048    68    64   4218 24.5426  0.9984 13.0029  5.3285  3.3612 0.00000 10.608 24.286 26.101 21.780  6.2367 20.3014 32.2190
 1995 049    69    65   4334 27.3230  0.7692 14.4936  6.3939  2.4575 0.31239 10.586 24.121 21.123 17.589  6.2414 19.0306 33.4604
 1995 050    70    66   4473 29.2783  0.7691 16.2929  6.4663  2.6070 0.77839 10.618 24.091 23.351 17.032  6.2566 18.3490 34.0473
 1995 051    71    67   4618 32.7201  1.0376 17.9070  7.1610  3.8521 0.59102 10.593 23.922 27.172 20.926  6.2305 18.9486 33.6108
 1995 052    72    68   4710 28.5145  1.1593 14.2762  6.5465  4.4022 0.00000 10.484 23.543 30.046 23.052  6.2507 19.4648 32.9684
 1995 053    73    69   4730 13.6649  1.0754  7.4930  3.1245  2.6496 0.00000 10.388 23.193 22.981 20.341  6.2268 19.5338 33.0489
 1995 054    74    70   4744 13.1792  1.0490  7.2412  3.1211  2.5269 0.00000 10.302 22.852 22.616 19.834  6.2122 19.4950 33.1786
 1995 055    75    71   4812 26.3729  1.2158 12.8478  6.4948  3.9435 0.00000 10.202 22.448 25.064 22.640  6.2253 19.7415 32.8501
 1995 056    76    72   4909 31.1627  1.0681 15.7969  7.9884  3.5076 0.00000 10.119 22.093 24.003 20.046  6.2145 19.6921 32.9672
 1995 057    77    73   4961 23.1412  1.1166 11.8866  5.8586  3.4293 0.00000 10.027 21.716 26.029 20.755  6.2085 19.7265 32.9704
 1995 058    78    74   5002 19.9089  1.1600 10.3101  5.0672  3.3780 0.00000  9.929 21.316 23.830 21.585  6.2083 19.8147 32.8835
 1995 059    79    75   5036 18.4634  1.0207  9.5963  4.5737  3.6605 0.05937  9.875 21.001 25.510 22.767  6.2565 19.8391 32.5577
 1995 060    80    76   5081 22.3310  1.1490 11.3671  5.8572  3.6117 0.00000  9.782 20.590 24.643 21.759  6.2498 19.9017 32.5370
 1995 061    81    77   5144 26.6161  1.2062 13.1154  7.0828  4.3417 0.00000  9.677 20.144 26.001 23.260  6.2581 19.9888 32.3979
 1995 062    82    78   5212 26.0592  0.8967 12.4817  7.0414  4.6181 0.09789  9.650 19.877 27.606 23.976  6.3116 19.9763 32.0764
 1995 063    83    79   5261 20.2659  0.9439 10.3188  5.3605  3.7338 0.05563  9.593 19.553 26.196 22.105  6.3235 19.9691 32.0088
 1995 064    84    80   5340 25.0391  0.6008 12.4591  7.4359  3.0361 0.10930  9.605 19.400 23.237 18.578  6.3455 19.7465 32.0943
 1995 065    85    81   5404 22.2988  0.6935 10.9960  6.2793  3.3315 0.09889  9.593 19.195 25.024 19.904  6.3599 19.6605 32.0900
 1995 066    86    82   5413  9.0858  0.9260  5.5135  2.0139  2.3834 0.01313  9.499 18.821 19.819 18.966  6.3566 19.6192 32.1523
 1995 067    87    83   5447 12.6470  0.7249  6.9913  3.4503  2.1273 0.04685  9.444 18.550 18.804 17.027  6.3654 19.4725 32.2440
 1995 068    88    84   5519 20.2247  0.5915 10.1394  6.0348  2.5423 0.08947  9.424 18.363 21.821 17.204  6.3812 19.2846 32.3328
 1995 069    89    85   5594 21.3680  0.5594 10.3328  6.2518  2.8362 0.11202  9.414 18.202 23.220 18.179  6.3967 19.1637 32.3568
 1995 070    90    86   5661 20.1226  0.6824  9.7470  5.8389  2.9759 0.08406  9.363 17.959 24.147 18.965  6.4033 19.1074 32.3719
 1995 071    91    87   5724 20.2337  0.7781  9.4383  5.6343  3.5966 0.08265  9.284 17.664 26.013 21.436  6.4099 19.1256 32.3122
 1995 072    92    88   5790 20.2606  0.7043  9.4943  5.8342  3.2038 0.08894  9.214 17.402 24.046 20.215  6.4159 19.1136 32.2872
 1995 073    93    89   5854 19.2485  0.7195  9.0656  5.5997  3.0248 0.07806  9.128 17.118 23.369 19.824  6.4197 19.0961 32.2809
 1995 074    94    90   5917 19.6534  0.6635  8.9414  5.6442  3.2252 0.10073  9.056 16.873 24.466 20.497  6.4275 19.0868 32.2412
 1995 075    95    91   5971 17.5386  0.7616  8.0518  4.9732  3.1657 0.07208  8.942 16.551 24.222 20.821  6.4310 19.0912 32.2151
 1995 076    96    92   6025 17.1193  0.6827  7.8698  4.9928  2.8347 0.07980  8.842 16.270 23.602 19.530  6.4355 19.0681 32.2100
 1995 077    97    93   6078 17.4173  0.7987  7.7318  4.8894  3.4891 0.05928  8.697 15.907 27.617 21.670  6.4376 19.0863 32.1788
 1995 078    98    94   6125 16.5298  0.7499  7.1081  4.5420  3.5543 0.07646  8.564 15.576 27.672 22.293  6.4437 19.0995 32.1271
 1995 079    99    95   6166 14.6509  0.7961  6.3916  4.0040  3.3137 0.05298  8.402 15.197 27.494 21.765  6.4459 19.1124 32.1010
 1995 080   100    96   6202 14.1662  0.7665  5.8610  3.7259  3.6558 0.06349  8.244 14.835 29.531 23.062  6.4517 19.1247 32.0521
 1995 081   101    97   6222  9.7056  0.8532  4.2852  2.4550  2.8835 0.02632  8.043 14.391 25.846 21.535  6.4515 19.1341 32.0443
 1995 082   102    98   6221  5.0165  0.8321  2.5102  1.1063  1.9988 0.00124  7.830 13.933 21.117 18.645  6.4492 19.1287 32.0641
 1995 083   103    99   6259 12.7446  0.7342  5.6886  3.5618  2.6104 0.03370  7.650 13.548 24.475 19.640  6.4481 19.1222 32.0772
 1995 084   104   100   6284 10.3571  0.7367  4.4505  2.6935  2.6871 0.03479  7.463 13.157 25.563 20.521  6.4485 19.1228 32.0740
 1995 085   105   101   6299  8.0385  0.7729  3.3865  1.9341  2.6603 0.02295  7.255 12.730 25.364 21.171  6.4485 19.1276 32.0692
 1995 086   106   102   6324 10.4127  0.7348  4.2745  2.7232  2.9745 0.02732  7.054 12.322 27.908 21.571  6.4485 19.1362 32.0608
 1995 087   107   103   6343  8.8609  0.7336  3.7357  1.5366  3.1325 0.03237  6.851 11.914 27.347 23.161  6.4115 19.2263 32.2017
 1995 088   108   104   6178  6.1664  0.5799  3.1082  1.2852  1.5961 0.02177  6.629 11.011 20.448 15.879  6.3807 19.2529 32.3675
 1995 089   109   105   6047  5.4074  0.5376  2.6185  1.2927  1.4428 0.00000  6.387 10.174 20.991 14.916  6.3615 19.2531 32.4873
 1995 090   110   106   5922  2.0154  0.4889  0.8473  0.3087  1.3868 0.00000  6.139  9.422 19.238 16.501  6.3614 19.2453 32.4958
 1995 091   111   107   5818  1.2634  0.4277  0.3129  0.0898  1.3210 0.00000  5.892  8.761 18.536 16.608  6.3614 19.2426 32.4988
 1995 092   112   108   5738  2.4963  0.3935  0.9165  0.3655  1.5204 0.00000  5.650  8.166 20.692 17.889  6.3608 19.2390 32.5062
 1995 093   113   109   5673  2.2001  0.3423  0.7564  0.2896  1.4463 0.00000  5.422  7.648 22.366 17.152  6.3606 19.2339 32.5127
 1995 094   114   110   5615  1.8226  0.3388  0.2534  0.0727  1.8461 0.00000  5.175  7.161 25.538 20.293  6.3604 19.2343 32.5133
 1995 095   115   111   5565  1.4109  0.3276  0.0000  0.0000  2.1924 0.00000  4.917  6.707 27.676 22.925  6.3604 19.2343 32.5133
 1995 096   116   112   5524  1.0544  0.3052  0.0000  0.0000  2.2740 0.00000  4.667  6.293 28.035 23.812  6.3604 19.2343 32.5133
 1995 097   117   113   5488  0.8766  0.2863  0.0000  0.0000  2.4774 0.00000  4.422  5.913 29.618 25.190  6.3604 19.2343 32.5133
 1995 098   118   114   5458  0.7302  0.2662  0.0000  0.0000  2.5180 0.00000  4.188  5.565 29.835 25.654  6.3604 19.2343 32.5133
[...]
 2010 066    86    82   4814 23.4747  0.6732 10.7401  6.6031  3.9020 0.11035 10.578 21.661 27.421 22.765  6.4784 19.5930 31.4168
 2010 067    87    83   4859 16.4375  0.8779  7.8589  4.3019  3.5701 0.05675 10.469 21.260 26.105 23.441  6.4846 19.6120 31.3592
 2010 068    88    84   4919 19.5356  0.7794  9.0254  5.3725  3.6794 0.08131 10.383 20.923 25.833 23.240  6.4939 19.6226 31.2902
 2010 069    89    85   4967 17.5200  0.8848  8.0120  4.6756  3.9234 0.05788 10.251 20.496 27.959 24.550  6.5037 19.6386 31.2133
 2010 070    90    86   5035 20.8032  0.6598  9.3540  5.8452  3.5266 0.10270 10.183 20.226 26.124 22.433  6.5123 19.6332 31.1648
 2010 071    91    87   5085 15.3355  0.6656  7.4265  4.5052  2.4025 0.05970 10.084 19.907 23.719 18.716  6.5117 19.5664 31.2356
 2010 072    92    88   5119 12.0492  0.7431  5.8135  3.2621  2.5006 0.04888  9.952 19.525 24.300 20.150  6.5111 19.5460 31.2599
 2010 073    93    89   5167 15.4401  0.7139  7.1463  4.3784  2.7975 0.06144  9.825 19.164 24.976 20.792  6.5109 19.5337 31.2732
 2010 074    94    90   5216 14.0714  0.5030  6.6908  4.3637  1.9203 0.08510  9.756 18.944 21.119 16.831  6.5198 19.4137 31.3374
 2010 075    95    91   5265 14.0173  0.5230  6.6537  4.3910  1.9528 0.07569  9.671 18.699 22.724 16.524  6.5273 19.2950 31.4095
 2010 076    96    92   5319 16.1944  0.6469  7.3343  4.7644  2.6581 0.06796  9.543 18.365 25.409 19.849  6.5272 19.2741 31.4311
 2010 077    97    93   5328  6.3635  0.8547  3.1256  1.4014  2.2675 0.01156  9.322 17.842 22.437 21.021  6.5242 19.2803 31.4432
 2010 078    98    94   5339  6.9353  0.8248  3.2446  1.5733  2.3836 0.01793  9.104 17.334 24.520 21.370  6.5225 19.2862 31.4482
 2010 079    99    95   5360  8.6696  0.7449  4.0263  2.2622  2.1990 0.02614  8.904 16.875 22.348 20.120  6.5206 19.2821 31.4640
 2010 080   100    96   5389 10.8121  0.7483  4.8182  2.8909  2.5471 0.02943  8.698 16.410 24.673 21.244  6.5186 19.2887 31.4702
 2010 081   101    97   5424 12.2170  0.7066  5.2923  3.2433  2.7069 0.03917  8.501 15.973 25.979 21.526  6.5177 19.2955 31.4685
 2010 082   102    98   5459 10.6088  0.5843  4.8756  3.1655  1.8629 0.03982  8.338 15.613 22.780 17.306  6.5188 19.2446 31.5128
 2010 083   103    99   5491 10.3579  0.5868  4.6375  3.0429  1.9967 0.04116  8.169 15.248 24.081 18.011  6.5195 19.2094 31.5435
 2010 084   104   100   5520  9.5281  0.5917  4.2759  2.8376  1.8973 0.03646  7.991 14.870 22.733 18.044  6.5199 19.1790 31.5715
 2010 085   105   101   5544  8.4233  0.5583  3.7028  2.4546  1.8199 0.04306  7.823 14.517 22.049 18.033  6.5220 19.1498 31.5878
 2010 086   106   102   5557  6.7580  0.7000  2.8960  1.7405  2.1587 0.01338  7.589 14.028 23.443 20.662  6.5201 19.1535 31.5961
 2010 087   107   103   5584  7.6161  0.0000  2.9903  1.1303  2.0319 0.48718  7.767 14.490 22.603 19.754  6.4807 19.2288 31.7670
 2010 088   108   104   5452  7.6773  0.1558  3.2121  1.2654  2.1614 0.17723  7.763 13.950 24.129 20.334  6.4413 19.3077 31.9341
 2010 089   109   105   5343  5.8296  0.4404  2.5983  1.0751  1.7933 0.05347  7.557 13.135 24.235 18.651  6.4123 19.3555 32.0673
 2010 090   110   106   5251  4.4536  0.5471  1.8959  0.8263  1.7721 0.00000  7.238 12.215 24.598 19.370  6.3953 19.3856 32.1440
 2010 091   111   107   5164  3.1669  0.5190  0.9681  0.4518  2.1602 0.00000  6.901 11.356 27.628 22.685  6.3948 19.3894 32.1432
 2010 092   112   108   5091  2.1891  0.4457  0.5927  0.1969  1.8443 0.00000  6.585 10.602 25.057 21.589  6.3944 19.3912 32.1440
 2010 093   113   109   5029  0.5317  0.3408  0.0000  0.0000  1.0884 0.00000  6.315  9.990 18.804 16.634  6.3944 19.3912 32.1440
 2010 094   114   110   4981  0.8572  0.2778  0.3018  0.0866  0.8060 0.00000  6.088  9.477 17.107 13.576  6.3947 19.3837 32.1495
 2010 095   115   111   4940  0.7067  0.2642  0.0639  0.0183  0.8989 0.00000  5.855  9.005 18.844 14.617  6.3947 19.3825 32.1505
 2010 096   116   112   4906  0.4836  0.2310  0.0000  0.0000  0.7594 0.00000  5.642  8.595 17.720 13.078  6.3947 19.3825 32.1505
 2010 097   117   113   4876  0.6720  0.2527  0.0000  0.0000  1.3005 0.00000  5.399  8.174 25.145 17.857  6.3947 19.3825 32.1505
 2010 098   118   114   4851  0.2584  0.2192  0.0000  0.0000  0.9493 0.00000  5.183  7.809 19.881 15.596  6.3947 19.3825 32.1505
 2010 099   119   115   4830  0.3191  0.2060  0.0000  0.0000  0.9426 0.00000  4.975  7.473 19.808 15.597  6.3947 19.3825 32.1505

*DSSAT Cropping System Model Ver. 4.6.1.000 -release      DEC 14, 2016; 12:37:38
                                                                                
*RUN  21        : UYSB                      CRGRO046 UYSB1074    1              
 MODEL          : CRGRO046 - Soybean                                            
 EXPERIMENT     : UYSB1074 SN late to create DSS                                
 DATA PATH      :                                                               
 TREATMENT  1   : UYSB                      CRGRO046                            
  
@YEAR DOY   DAS   DAP   TWAD    PHAD    CMAD    CGRD    GRAD    MRAD    CHAD   CL%D   CS%D   TGNN   TGAV    GN%D    GL%D    GC%D
 2010 349     4     0      0  0.0000  0.0000  0.0000  0.0000  0.0000 0.00000  0.000  0.000 29.351 22.758  0.0000  0.0000  0.0000
 2010 350     5     1      0  0.0000  0.0000  0.0000  0.0000  0.0000 0.00000  0.000  0.000 29.538 23.447  0.0000  0.0000  0.0000
 2010 351     6     2      0  0.0000  0.0000  0.0000  0.0000  0.0000 0.00000  0.000  0.000 30.505 25.130  0.0000  0.0000  0.0000
 2010 352     7     3      0  0.0000  0.0000  0.0000  0.0000  0.0000 0.00000  0.000  0.000 30.085 25.463  0.0000  0.0000  0.0000
 2010 353     8     4      0  0.0000  0.0000  0.0000  0.0000  0.0000 0.00000  0.000  0.000 22.902 20.753  0.0000  0.0000  0.0000
 2010 354     9     5      8  0.0000  0.0007  0.0004  0.0002  0.0000 0.00000  3.923  7.839 27.143 24.563  0.0000  0.0000  0.0000
 2010 355    10     6      9  0.1970  0.0006  0.1230  0.0404  0.0176 0.00000  3.876  7.744 29.686 23.990  0.0000  0.0000  0.0000
 2010 356    11     7     10  0.2355  0.0007  0.1434  0.0479  0.0230 0.00000  3.820  7.662 30.806 25.432  0.0000  0.0000  0.0000
 2010 357    12     8     12  0.2698  0.0008  0.1674  0.0538  0.0258 0.00000  3.771  7.600 30.419 25.080  0.0000  0.0000  0.0000
 2010 358    13     9     13  0.1420  0.0009  0.1031  0.0223  0.0149 0.00000  3.737  7.514 25.696 23.259  0.0000  0.0000  0.0000
 2010 359    14    10     15  0.3295  0.0011  0.2009  0.0638  0.0336 0.00000  3.688  7.476 30.831 26.066  0.0000  0.0000  0.0000
 2010 360    15    11     17  0.3738  0.0011  0.2323  0.0718  0.0355 0.00000  3.646  7.456 31.032 24.654  0.0000  0.0000  0.0000
 2010 361    16    12     19  0.4001  0.0013  0.2329  0.0898  0.0417 0.00000  3.645  7.386 31.437 25.883  0.0000  0.0000  0.0000
 2010 362    17    13     22  0.4977  0.0013  0.3017  0.1146  0.0393 0.00000  3.651  7.364 27.656 22.424  0.0000  0.0000  0.0000
 2010 363    18    14     25  0.5536  0.0017  0.3363  0.1220  0.0500 0.00000  3.638  7.345 28.321 24.343  0.0000  0.0000  0.0000
 2010 364    19    15     30  0.7080  0.0017  0.4421  0.1541  0.0534 0.00000  3.631  7.373 27.060 22.115  0.0000  0.0000  0.0000
 2010 365    20    16     34  0.7970  0.0022  0.4850  0.1772  0.0701 0.00000  3.626  7.369 28.765 24.106  0.0000  0.0000  0.0000
 2011 001    21    17     39  0.7834  0.0026  0.4740  0.1745  0.0718 0.00000  3.616  7.351 29.164 23.967  0.0000  0.0000  0.0000
 2011 002    22    18     44  0.7861  0.0028  0.4862  0.1701  0.0659 0.00000  3.595  7.342 25.884 22.622  0.0000  0.0000  0.0000
 2011 003    23    19     47  0.5827  0.0029  0.3614  0.1243  0.0504 0.00000  3.565  7.309 23.424 21.345  0.0000  0.0000  0.0000
 2011 004    24    20     53  0.9644  0.0036  0.5847  0.2096  0.0927 0.00000  3.550  7.295 28.546 24.388  0.0000  0.0000  0.0000
 2011 005    25    21     59  1.0624  0.0042  0.6352  0.2358  0.1067 0.00000  3.541  7.270 28.852 24.981  0.0000  0.0000  0.0000
 2011 006    26    22     70  1.8314  0.0046  1.1140  0.3976  0.1693 0.00000  3.549  7.321 30.294 25.204  0.0000  0.0000  0.0000
 2011 007    27    23     82  2.0923  0.0064  1.2387  0.4394  0.2478 0.00000  3.542  7.334 33.141 28.983  0.0000  0.0000  0.0000
 2011 008    28    24     94  2.1795  0.0071  1.3097  0.4683  0.2251 0.00000  3.538  7.335 30.699 26.433  0.0000  0.0000  0.0000
 2011 009    29    25    109  2.5439  0.0084  1.5236  0.5392  0.2757 0.00000  3.530  7.335 31.556 27.183  0.0000  0.0000  0.0000
 2011 010    30    26    120  1.9055  0.0083  1.1664  0.4031  0.1808 0.00000  3.509  7.313 28.881 23.254  0.0000  0.0000  0.0000
 2011 011    31    27    133  2.1430  0.0095  1.3265  0.4464  0.1940 0.00000  3.483  7.297 25.813 23.197  0.0000  0.0000  0.0000
 2011 012    32    28    151  2.9323  0.0000  1.7947  0.5278  0.2610 0.11356  4.958  8.583 27.055 23.757  0.0000  0.0000  0.0000
 2011 013    33    29    175  4.1699  0.0143  2.5416  0.9265  0.3417 0.00000  4.737  8.358 27.441 23.319  0.0000  0.0000  0.0000
 2011 014    34    30    203  5.1377  0.0167  2.7286  1.2758  0.4272 0.00000  4.492  8.170 27.765 23.715  0.0000  0.0000  0.0000
 2011 015    35    31    238  6.1915  0.0202  3.5653  1.4136  0.6048 0.00000  4.324  8.004 31.054 25.930  0.0000  0.0000  0.0000
 2011 016    36    32    271  5.8560  0.0246  3.3798  1.3286  0.6663 0.00000  4.201  7.859 32.624 27.427  0.0000  0.0000  0.0000
 2011 017    37    33    311  6.8027  0.0255  4.0495  1.5687  0.6247 0.00000  4.106  7.749 28.848 24.511  0.0000  0.0000  0.0000
 2011 018    38    34    364  9.2988  0.0286  5.6533  2.0627  0.8412 0.00000  4.060  7.667 30.061 24.722  0.0000  0.0000  0.0000
 2011 019    39    35    430 10.8348  0.0340  6.8926  2.2649  1.0103 0.02459  4.065  7.735 30.530 25.119  0.0000  0.0000  0.0000
 2011 020    40    36    507 12.5752  0.0406  8.0093  2.3923  1.1453 0.08376  4.145  8.033 29.790 24.810  0.0000  0.0000  0.0000
 2011 021    41    37    599 14.2376  0.0000  8.2155  2.4101  1.0607 1.31862  5.784 12.885 28.035 21.622  0.0000  0.0000  0.0000
 2011 022    42    38    693 14.9614  0.0000  8.4783  2.4435  1.4696 1.32815  6.978 16.258 30.020 25.398  0.0000  0.0000  0.0000
 2011 023    43    39    803 17.2133  0.0000  9.2074  2.5241  1.7465 2.28961  8.736 21.082 30.502 25.845  0.0000  0.0000  0.0000
 2011 024    44    40    891 16.8470  0.2050  8.0238  4.1502  2.1989 0.29560  8.199 19.968 32.989 29.084  0.0000  0.0000  0.0000
 2011 025    45    41    993 18.1640  0.2040 10.5801  3.7424  2.0855 0.46314  7.974 19.201 31.088 26.933  0.0000  0.0000  0.0000
 2011 026    46    42   1043 10.7703  0.1955  4.0689  2.9615  1.5755 0.20713  7.665 18.699 33.817 26.402  0.0000  0.0000  0.0000
 2011 027    47    43   1138 19.2641  0.2239 10.0080  4.3743  2.2193 0.58963  7.624 18.388 30.680 26.526  0.0000  0.0000  0.0000
 2011 028    48    44   1260 23.1055  0.2475 13.0238  4.7024  2.7096 0.87354  7.705 18.284 31.448 27.222  0.0000  0.0000  0.0000
 2011 029    49    45   1404 24.4691  0.2684 14.6468  4.6273  2.7708 1.08932  7.769 18.306 30.874 26.469  0.0000  0.0000  0.0000
 2011 030    50    46   1486 15.2533  0.2951  8.5912  2.9231  2.0667 0.73220  7.787 18.271 30.413 25.866  0.0000  0.0000  0.0000
 2011 031    51    47   1552 13.0193  0.3174  7.3489  2.3843  1.9907 0.63668  7.809 18.239 30.636 26.161  0.0000  0.0000  0.0000
 2011 032    52    48   1698 24.0061  0.0000 13.7944  3.7665  2.3697 2.05005  8.406 19.720 26.626 23.654  0.0000  0.0000  0.0000
 2011 033    53    49   1902 30.8607  0.0000 14.2443  3.8366  2.5896 7.27024 10.758 25.950 28.104 21.553  0.0000  0.0000  0.0000
 2011 034    54    50   2085 30.1968  0.0000 15.7262  4.5488  3.5018 3.66166 11.550 27.830 32.183 25.346  0.0000  0.0000  0.0000
 2011 035    55    51   2226 25.4558  0.6355 14.7862  4.7348  3.0699 1.37189 11.455 27.411 29.345 24.943  0.0000  0.0000  0.0000
 2011 036    56    52   2408 31.3840  0.0000 15.4566  4.6184  4.0958 4.21714 12.327 29.474 32.082 26.786  0.0000  0.0000  0.0000
 2011 037    57    53   2551 27.0730  0.7858 15.1935  5.1444  3.3973 1.40627 12.232 29.064 28.950 25.086  0.0000  0.0000  0.0000
 2011 038    58    54   2679 25.4594  0.8150 13.9774  4.9003  3.3598 1.25276 12.160 28.724 28.931 25.032  0.0000  0.0000  0.0000
 2011 039    59    55   2739 14.8101  0.6922  8.0639  3.1472  1.9950 0.06934 12.081 28.415 22.396 21.394  0.0000  0.0000  0.0000
 2011 040    60    56   2818 18.1336  0.6715  9.7299  3.8675  2.1245 0.25153 12.011 28.135 22.066 20.993  0.0000  0.0000  0.0000
 2011 041    61    57   2899 18.6479  0.6941 10.0013  3.9711  2.2744 0.17017 11.939 27.846 23.741 21.381  0.0000  0.0000  0.0000
 2011 042    62    58   3068 31.3799  0.0000 15.9481  5.3679  3.3917 2.71370 12.513 29.123 25.211 23.030  0.0000  0.0000  0.0000
 2011 043    63    59   3179 24.3046  0.7786 13.0885  5.0843  2.7761 0.38618 12.459 28.865 24.686 21.720  0.0000  0.0000  0.0000
 2011 044    64    60   3350 32.2617  0.0000 17.3534  6.1790  3.1907 1.34955 12.710 29.289 25.272 21.305  0.0000  0.0000  0.0000
 2011 045    65    61   3506 32.2091  0.8272 17.5797  6.6068  3.1597 1.27803 12.739 29.189 25.063 20.847  0.0000  0.0000  0.0000
 2011 046    66    62   3668 31.0177  0.7334 17.4760  6.5012  2.6641 1.17692 12.781 29.134 24.460 18.315  6.2105 18.3525 34.3317
 2011 047    67    63   3808 32.1797  0.9782 16.5953  7.0713  3.5677 0.95711 12.771 28.961 26.837 21.622  6.2097 19.3241 33.3652
 2011 048    68    64   3924 32.0415  1.2151 16.1777  6.9223  4.6557 0.64249 12.701 28.650 29.291 25.184  6.3428 19.9158 31.9416
 2011 049    69    65   4026 29.8285  1.2494 14.7981  6.9757  4.5539 0.00000 12.562 28.187 29.270 25.128  6.4121 20.2356 31.1890
 2011 050    70    66   4136 29.9795  1.1339 15.4664  7.2456  3.7175 0.00000 12.444 27.770 25.678 22.287  6.3392 20.2884 31.5916
 2011 051    71    67   4227 27.1982  1.1537 13.7621  6.7590  3.6016 0.00000 12.325 27.346 25.323 22.290  6.3052 20.3132 31.7793
 2011 052    72    68   4270 17.7235  1.2630  9.0617  4.2587  3.5472 0.00000 12.190 26.875 27.368 23.978  6.3234 20.3677 31.6110
 2011 053    73    69   4342 25.9131  1.2645 12.5580  6.4983  4.0967 0.00000 12.062 26.401 27.224 23.977  6.3344 20.4007 31.5090
 2011 054    74    70   4370 13.5908  1.1330  7.4358  3.4945  2.7307 0.00000 11.956 25.976 22.575 21.576  6.3050 20.3486 31.7451
 2011 055    75    71   4420 21.4938  1.1177 10.9265  5.5856  3.1411 0.00000 11.864 25.555 23.849 21.389  6.2841 20.3019 31.9222
 2011 056    76    72   4477 22.4856  1.1567 11.5214  5.9078  3.4264 0.00000 11.765 25.109 24.506 22.189  6.2747 20.3090 31.9740
 2011 057    77    73   4573 28.9200  1.0976 14.7771  7.7339  3.5495 0.00000 11.675 24.679 24.211 21.218  6.2604 20.2632 32.1092
 2011 058    78    74   4669 26.1371  0.9466 13.3887  7.4498  2.7911 0.00000 11.601 24.305 23.536 18.299  6.2531 19.9787 32.4392
 2011 059    79    75   4758 27.4641  1.0005 13.7709  7.5561  3.2706 0.00000 11.514 23.899 26.025 19.400  6.2440 19.8727 32.6021
 2011 060    80    76   4839 26.3883  1.0720 13.0111  7.5159  3.4891 0.00000 11.409 23.453 25.123 20.814  6.2361 19.8754 32.6492
 2011 061    81    77   4924 26.3194  0.7401 12.6105  7.4374  3.9198 0.11356 11.413 23.239 27.211 21.978  6.2753 19.8415 32.4377
 2011 062    82    78   4999 25.7764  0.7513 12.2180  7.1660  4.1171 0.11617 11.414 23.016 27.871 22.569  6.3107 19.8243 32.2340
 2011 063    83    79   5060 25.2526  0.8321 12.0338  6.9872  4.1569 0.09610 11.385 22.730 27.255 22.843  6.3353 19.8252 32.0792
 2011 064    84    80   5138 24.9432  0.6250 11.9621  7.2384  3.3963 0.11914 11.397 22.552 25.733 19.936  6.3535 19.7288 32.0618
 2011 065    85    81   5208 23.3363  0.7901 10.9686  6.4514  4.0345 0.09733 11.360 22.267 27.539 22.455  6.3701 19.7272 31.9599
 2011 066    86    82   5269 20.7750  0.8776  9.6472  5.5309  4.3024 0.08212 11.288 21.915 28.726 23.857  6.3883 19.7341 31.8389
 2011 067    87    83   5330 21.5821  0.9260  9.7202  5.7220  4.8228 0.08044 11.194 21.526 29.773 25.473  6.4123 19.7413 31.6821
 2011 068    88    84   5382 18.7798  0.9035  8.5318  4.8433  4.3398 0.07558 11.089 21.133 29.101 24.661  6.4288 19.7448 31.5754
 2011 069    89    85   5431 17.5190  0.9332  8.1558  4.6424  3.8895 0.05598 10.956 20.695 27.330 23.638  6.4360 19.7546 31.5206
 2011 070    90    86   5487 19.4659  0.8202  8.5712  5.2210  4.2827 0.09058 10.853 20.337 28.902 24.500  6.4523 19.7515 31.4218
 2011 071    91    87   5535 17.6355  0.8865  7.8344  4.6896  4.1007 0.06802 10.711 19.912 28.336 24.469  6.4632 19.7545 31.3507
 2011 072    92    88   5587 14.6533  0.5702  7.1968  4.5695  1.9793 0.07840 10.640 19.666 20.567 16.347  6.4728 19.6142 31.4311
 2011 073    93    89   5638 14.0361  0.5460  6.9479  4.5387  1.8454 0.07206 10.564 19.423 21.651 15.021  6.4852 19.4381 31.5296
 2011 074    94    90   5688 14.3558  0.5437  6.8977  4.4478  2.0016 0.08272 10.489 19.186 22.117 16.092  6.4951 19.3103 31.5954
 2011 075    95    91   5745 16.9998  0.6690  7.7314  4.9988  2.8340 0.07432 10.368 18.863 26.211 19.339  6.4966 19.2786 31.6174
 2011 076    96    92   5753  7.3214  0.9802  3.4016  1.5182  3.0283 0.00912 10.121 18.287 27.990 23.032  6.4951 19.2927 31.6129
 2011 077    97    93   5796 13.7558  0.7118  6.2980  3.9015  2.5569 0.05550  9.962 17.905 23.879 19.560  6.4954 19.2737 31.6298
 2011 078    98    94   5836 11.5551  0.6125  5.6441  3.6413  1.7584 0.04315  9.817 17.567 21.923 15.165  6.5011 19.1646 31.7035
 2011 079    99    95   5882 13.9793  0.6246  6.2707  4.0949  2.4490 0.06685  9.674 17.238 24.910 18.580  6.5035 19.1294 31.7235
 2011 080   100    96   5919 13.4564  0.7767  5.7230  3.6716  3.2414 0.04179  9.465 16.782 28.781 22.205  6.5037 19.1437 31.7084
 2011 081   101    97   5949 12.8226  0.7810  4.9291  3.2228  4.0286 0.05455  9.251 16.327 31.820 25.565  6.5114 19.1530 31.6504
 2011 082   102    98   5958  7.1881  0.8528  3.1907  1.7358  2.5553 0.00547  8.984 15.770 25.770 21.320  6.5085 19.1626 31.6594
 2011 083   103    99   5964  5.2433  0.7920  2.3610  1.1478  2.1794 0.00758  8.729 15.247 23.554 20.131  6.5066 19.1640 31.6695
 2011 084   104   100   5963  3.2804  0.7002  1.6503  0.7042  1.5147 0.00547  8.497 14.776 18.252 16.913  6.5061 19.1497 31.6872
 2011 085   105   101   5976  6.2438  0.7551  2.9472  1.0833  2.0580 0.00000  8.237 14.254 21.968 19.431  6.4799 19.1967 31.8040
 2011 086   106   102   5849  6.0852  0.6526  3.1145  1.2293  1.5229 0.00000  7.932 13.230 19.354 16.186  6.4499 19.2232 31.9651
 2011 087   107   103   5754  7.0483  0.5964  3.2608  1.5240  1.8637 0.00000  7.617 12.293 22.806 18.128  6.4241 19.2589 32.0903
 2011 088   108   104   5675  5.1321  0.5005  2.3531  1.0395  1.6020 0.00000  7.321 11.479 22.319 17.083  6.4048 19.2795 32.1903
 2011 089   109   105   5604  3.9269  0.4627  1.5777  0.7292  1.7350 0.00000  7.020 10.735 23.500 18.654  6.3968 19.2900 32.2299
 2011 090   110   106   5532  1.8073  0.4463  0.1841  0.0528  2.0231 0.00000  6.692 10.038 25.657 21.552  6.3967 19.2906 32.2301
 2011 091   111   107   5475  2.5863  0.4139  0.5988  0.1718  2.2497 0.00000  6.375  9.400 26.771 22.915  6.3965 19.2931 32.2291
 2011 092   112   108   5428  1.8277  0.3410  0.3983  0.1142  1.6756 0.00000  6.096  8.861 23.563 19.711  6.3961 19.2931 32.2310
 2011 093   113   109   5387  1.4630  0.3117  0.0606  0.0174  1.6996 0.00000  5.820  8.374 25.372 19.772  6.3961 19.2931 32.2313
 2011 094   114   110   5352  1.1453  0.2956  0.0000  0.0000  1.7605 0.00000  5.547  7.922 24.777 20.791  6.3961 19.2931 32.2313
 2011 095   115   111   5324  0.8227  0.2395  0.0000  0.0000  1.2448 0.00000  5.318  7.550 22.581 16.468  6.3961 19.2931 32.2313
 2011 096   116   112   5300  0.7202  0.2343  0.0000  0.0000  1.4003 0.00000  5.089  7.196 24.161 17.844  6.3961 19.2931 32.2313
 2011 097   117   113   5278  0.5685  0.2181  0.0000  0.0000  1.3657 0.00000  4.870  6.872 24.250 17.555  6.3961 19.2931 32.2313
