*PLANT C OUTPUT FILE

*DSSAT Cropping System Model Ver. 4.6.1.000 -release      OCT 17, 2016; 12:01:09
                                                                                
*RUN   1        : UYSB                      CRGRO046 UYSB0876    1              
 MODEL          : CRGRO046 - Soybean                                            
 EXPERIMENT     : UYSB0876 SN late to create DSS                                
 DATA PATH      :                                                               
 TREATMENT  1   : UYSB                      CRGRO046                            
  
@YEAR DOY   DAS   DAP   TWAD    PHAD    CMAD    CGRD    GRAD    MRAD    CHAD   CL%D   CS%D   TGNN   TGAV    GN%D    GL%D    GC%D
 2000 291     4     0      0  0.0000  0.0000  0.0000  0.0000  0.0000 0.00000  0.000  0.000 21.165 19.204  0.0000  0.0000  0.0000
 2000 292     5     1      0  0.0000  0.0000  0.0000  0.0000  0.0000 0.00000  0.000  0.000 22.496 19.892  0.0000  0.0000  0.0000
 2000 293     6     2      0  0.0000  0.0000  0.0000  0.0000  0.0000 0.00000  0.000  0.000 19.218 18.076  0.0000  0.0000  0.0000
 2000 294     7     3      0  0.0000  0.0000  0.0000  0.0000  0.0000 0.00000  0.000  0.000 24.948 21.022  0.0000  0.0000  0.0000
 2000 295     8     4      0  0.0000  0.0000  0.0000  0.0000  0.0000 0.00000  0.000  0.000 25.659 21.268  0.0000  0.0000  0.0000
 2000 296     9     5      0  0.0000  0.0000  0.0000  0.0000  0.0000 0.00000  0.000  0.000 19.163 17.878  0.0000  0.0000  0.0000
 2000 297    10     6      0  0.0000  0.0000  0.0000  0.0000  0.0000 0.00000  0.000  0.000 18.191 16.726  0.0000  0.0000  0.0000
 2000 298    11     7      8  0.0000  0.0004  0.0003  0.0001  0.0000 0.00000  3.951  7.899 20.844 18.058  0.0000  0.0000  0.0000
 2000 299    12     8      8  0.1110  0.0005  0.0764  0.0213  0.0078 0.00000  3.924  7.810 21.203 19.273  0.0000  0.0000  0.0000
 2000 300    13     9      9  0.1257  0.0006  0.0887  0.0220  0.0100 0.00000  3.886  7.722 23.046 20.974  0.0000  0.0000  0.0000
 2000 301    14    10     10  0.2186  0.0005  0.1384  0.0451  0.0127 0.00000  3.842  7.682 22.996 18.600  0.0000  0.0000  0.0000
 2000 302    15    11     12  0.1709  0.0004  0.1081  0.0365  0.0076 0.00000  3.818  7.657 18.506 14.610  0.0000  0.0000  0.0000
 2000 303    16    12     12  0.1485  0.0003  0.0949  0.0318  0.0058 0.00000  3.804  7.642 16.370 12.616  0.0000  0.0000  0.0000
 2000 304    17    13     14  0.2799  0.0007  0.1810  0.0546  0.0168 0.00000  3.773  7.617 24.543 18.250  0.0000  0.0000  0.0000
 2000 305    18    14     16  0.3043  0.0008  0.1970  0.0591  0.0199 0.00000  3.739  7.585 24.543 19.465  0.0000  0.0000  0.0000
 2000 306    19    15     17  0.1443  0.0010  0.0910  0.0285  0.0131 0.00000  3.697  7.511 23.242 19.629  0.0000  0.0000  0.0000
 2000 307    20    16     19  0.2600  0.0009  0.1697  0.0510  0.0163 0.00000  3.668  7.483 21.248 18.135  0.0000  0.0000  0.0000
 2000 308    21    17     21  0.3123  0.0008  0.2056  0.0612  0.0167 0.00000  3.651  7.479 21.391 16.382  0.0000  0.0000  0.0000
 2000 309    22    18     22  0.2458  0.0009  0.1609  0.0478  0.0146 0.00000  3.629  7.454 20.369 16.289  0.0000  0.0000  0.0000
 2000 310    23    19     24  0.3573  0.0010  0.2214  0.0806  0.0209 0.00000  3.642  7.420 22.002 17.243  0.0000  0.0000  0.0000
 2000 311    24    20     27  0.4290  0.0013  0.2651  0.0962  0.0283 0.00000  3.645  7.385 23.235 19.048  0.0000  0.0000  0.0000
 2000 312    25    21     29  0.3011  0.0015  0.1852  0.0660  0.0238 0.00000  3.626  7.331 22.380 19.301  0.0000  0.0000  0.0000
 2000 313    26    22     31  0.4485  0.0018  0.2792  0.0949  0.0357 0.00000  3.606  7.302 23.868 21.004  0.0000  0.0000  0.0000
 2000 314    27    23     33  0.2747  0.0016  0.1694  0.0599  0.0224 0.00000  3.584  7.255 20.093 18.554  0.0000  0.0000  0.0000
 2000 315    28    24     37  0.6451  0.0017  0.4093  0.1427  0.0391 0.00000  3.585  7.283 22.049 18.612  0.0000  0.0000  0.0000
 2000 316    29    25     41  0.7608  0.0021  0.4739  0.1721  0.0515 0.00000  3.590  7.294 24.014 19.968  0.0000  0.0000  0.0000
 2000 317    30    26     46  0.8606  0.0027  0.5359  0.1849  0.0651 0.00000  3.583  7.301 24.582 21.466  0.0000  0.0000  0.0000
 2000 318    31    27     51  0.7371  0.0021  0.4668  0.1618  0.0413 0.00000  3.584  7.312 20.315 17.020  0.0000  0.0000  0.0000
 2000 319    32    28     54  0.5271  0.0012  0.3318  0.1245  0.0204 0.00000  3.600  7.320 14.872 11.971  0.0000  0.0000  0.0000
 2000 320    33    29     57  0.4927  0.0010  0.3145  0.1122  0.0184 0.00000  3.609  7.335 14.988 10.833  0.0000  0.0000  0.0000
 2000 321    34    30     63  0.9646  0.0020  0.6240  0.2064  0.0439 0.00000  3.612  7.374 20.254 14.451  0.0000  0.0000  0.0000
 2000 322    35    31     72  1.3038  0.0031  0.8337  0.2765  0.0745 0.00000  3.609  7.402 23.490 17.508  0.0000  0.0000  0.0000
 2000 323    36    32     81  1.5552  0.0041  0.9703  0.3443  0.1006 0.00000  3.616  7.405 25.430 19.017  0.0000  0.0000  0.0000
 2000 324    37    33     91  1.7168  0.0054  1.0626  0.3722  0.1319 0.00000  3.610  7.395 27.187 21.168  0.0000  0.0000  0.0000
 2000 325    38    34    101  1.5148  0.0039  0.9627  0.3455  0.0764 0.00000  3.614  7.402 19.830 15.996  0.0000  0.0000  0.0000
 2000 326    39    35    113  2.0118  0.0052  1.2823  0.4383  0.1192 0.00000  3.609  7.419 24.001 17.730  0.0000  0.0000  0.0000
 2000 327    40    36    126  2.0716  0.0080  1.2944  0.4381  0.1681 0.00000  3.586  7.397 26.367 21.565  0.0000  0.0000  0.0000
 2000 328    41    37    139  2.3580  0.0101  1.4275  0.5028  0.2384 0.00000  3.566  7.358 30.129 24.431  0.0000  0.0000  0.0000
 2000 329    42    38    149  1.5774  0.0066  0.9930  0.3475  0.0978 0.00000  3.558  7.338 19.478 16.790  0.0000  0.0000  0.0000
 2000 330    43    39    164  2.4492  0.0066  1.5674  0.5245  0.1300 0.00000  3.559  7.357 21.400 16.132  0.0000  0.0000  0.0000
 2000 331    44    40    184  3.3197  0.0107  2.0941  0.6832  0.2379 0.00000  3.548  7.363 25.795 20.240  0.0000  0.0000  0.0000
 2000 332    45    41    197  2.1347  0.0130  1.3206  0.4324  0.1984 0.00000  3.518  7.315 25.824 21.129  0.0000  0.0000  0.0000
 2000 333    46    42    205  1.5470  0.0121  0.9230  0.3598  0.1425 0.00000  3.504  7.249 20.672 19.274  0.0000  0.0000  0.0000
 2000 334    47    43    218  2.2308  0.0099  1.3687  0.5321  0.1407 0.00000  3.513  7.224 19.824 16.706  0.0000  0.0000  0.0000
 2000 335    48    44    241  3.7569  0.0103  2.3266  0.9055  0.1986 0.00000  3.544  7.233 20.854 16.481  0.0000  0.0000  0.0000
 2000 336    49    45    265  4.0181  0.0113  2.4852  0.9674  0.2186 0.00000  3.567  7.240 21.779 16.402  0.0000  0.0000  0.0000
 2000 337    50    46    300  5.8172  0.0167  3.5547  1.3843  0.3852 0.00000  3.588  7.247 25.114 19.558  0.0000  0.0000  0.0000
 2000 338    51    47    331  5.3626  0.0199  3.2553  1.2655  0.3948 0.00000  3.590  7.229 25.557 20.109  0.0000  0.0000  0.0000
 2000 339    52    48    354  3.8849  0.0187  2.3723  0.9139  0.2700 0.00000  3.581  7.200 20.807 18.154  0.0000  0.0000  0.0000
 2000 340    53    49    396  6.9549  0.0189  4.3014  1.6416  0.3879 0.00000  3.596  7.218 21.598 17.584  0.0000  0.0000  0.0000
 2000 341    54    50    449  8.8694  0.0276  5.3721  2.0363  0.6750 0.00000  3.602  7.222 27.782 21.043  0.0000  0.0000  0.0000
 2000 342    55    51    505  9.7463  0.0371  5.7708  2.2021  0.8978 0.03542  3.649  7.373 29.193 23.817  0.0000  0.0000  0.0000
 2000 343    56    52    560  9.5986  0.0452  5.5711  2.1622  1.0134 0.06628  3.714  7.594 30.375 25.214  0.0000  0.0000  0.0000
 2000 344    57    53    638 13.6284  0.0531  7.8921  3.0713  1.3773 0.14202  3.854  8.032 30.157 25.749  0.0000  0.0000  0.0000
 2000 345    58    54    718 13.7313  0.0564  8.0364  3.1367  1.1810 0.19061  4.008  8.504 27.592 23.005  0.0000  0.0000  0.0000
 2000 346    59    55    789 12.5812  0.0725  7.1610  2.8327  1.2852 0.21463  4.135  8.911 28.460 24.590  0.0000  0.0000  0.0000
 2000 347    60    56    882 16.2860  0.0784  9.2103  3.6797  1.5997 0.32911  4.320  9.478 30.301 24.389  0.0000  0.0000  0.0000
 2000 348    61    57    991 19.5344  0.1047 11.3973  4.0028  2.2353 0.47563  4.595 10.155 31.855 27.161  0.0000  0.0000  0.0000
 2000 349    62    58   1095 18.8993  0.1200 10.0525  4.3109  1.9287 0.49022  4.759 10.701 28.362 25.030  0.0000  0.0000  0.0000
 2000 350    63    59   1210 20.1239  0.1204 11.7283  4.2148  1.7679 0.64110  5.018 11.359 27.550 22.570  0.0000  0.0000  0.0000
 2000 351    64    60   1313 17.8419  0.0783  9.7434  4.2357  0.9030 0.56854  5.179 11.871 19.597 15.548  0.0000  0.0000  0.0000
 2000 352    65    61   1444 22.7358  0.1111 12.7002  5.1456  1.3760 0.79825  5.402 12.491 23.032 17.729  0.0000  0.0000  0.0000
 2000 353    66    62   1598 27.5950  0.1698 15.1199  6.3753  2.2062 1.03653  5.648 13.150 27.073 21.340  0.0000  0.0000  0.0000
 2000 354    67    63   1738 25.4004  0.1670 13.8857  5.9482  1.7766 1.03785  5.860 13.715 24.539 18.986  0.0000  0.0000  0.0000
 2000 355    68    64   1903 29.1379  0.2192 16.6042  6.3267  2.3641 1.33732  6.115 14.348 26.820 20.944  0.0000  0.0000  0.0000
 2000 356    69    65   1962 12.3480  0.2058  6.0450  3.0473  1.1618 0.51548  6.149 14.468 20.269 18.298  0.0000  0.0000  0.0000
 2000 357    70    66   2132 30.8367  0.2943 17.4329  6.3479  2.9009 1.57738  6.427 15.100 27.752 22.772  0.0000  0.0000  0.0000
 2000 358    71    67   2209 15.2485  0.2338  7.2865  3.8554  1.2999 0.65958  6.450 15.240 19.635 17.844  0.0000  0.0000  0.0000
 2000 359    72    68   2398 30.2490  0.2669 19.0875  5.6609  2.2021 1.85247  6.751 15.925 24.278 18.832  0.0000  0.0000  0.0000
 2000 360    73    69   2592 32.7345  0.1609 19.0772  5.2653  3.8747 2.10985  7.089 16.740 29.750 25.307  0.0000  0.0000  0.0000
 2000 361    74    70   2782 35.2446  0.5463 19.0705  6.6393  5.0487 2.05419  7.269 17.184 33.183 28.023  0.0000  0.0000  0.0000
 2000 362    75    71   2855 16.8302  0.5076  9.6239  2.9093  2.4573 0.97265  7.328 17.273 26.735 22.793  0.0000  0.0000  0.0000
 2000 363    76    72   2996 25.7034  0.4698 14.4576  4.7682  2.6410 1.59755  7.465 17.590 24.681 21.133  0.0000  0.0000  0.0000
 2000 364    77    73   3129 24.5699  0.4627 13.9718  4.5808  2.3905 1.53534  7.595 17.881 22.847 20.016  0.0000  0.0000  0.0000
 2000 365    78    74   3360 37.1438  0.5077 22.5144  6.3978  3.2064 2.70222  7.841 18.484 24.639 20.446  0.0000  0.0000  0.0000
 2000 366    79    75   3590 38.3550  0.0000 20.4528  5.8337  4.0818 4.35910  8.481 20.130 27.597 22.759  0.0000  0.0000  0.0000
 2001 001    80    76   3825 39.2334  0.0000 19.6842  5.6448  4.4319 5.85472  9.328 22.330 28.110 23.308  0.0000  0.0000  0.0000
 2001 002    81    77   4052 39.2376  0.0000 21.1369  6.2697  4.5373 3.64431  9.737 23.274 28.155 23.209  0.0000  0.0000  0.0000
 2001 003    82    78   4274 39.5565  1.0154 22.4404  6.7362  5.1400 2.91490  9.838 23.449 30.266 24.280  0.0000  0.0000  0.0000
 2001 004    83    79   4428 32.0591  1.2627 17.0584  5.5658  5.8195 2.03172  9.854 23.402 31.600 27.585  0.0000  0.0000  0.0000
 2001 005    84    80   4644 40.2307  1.2567 22.5641  6.8467  6.1587 2.82993  9.930 23.508 30.645 26.487  0.0000  0.0000  0.0000
 2001 006    85    81   4838 39.7514  1.3426 20.6292  7.0632  6.7117 2.67297  9.988 23.578 32.069 27.444  0.0000  0.0000  0.0000
 2001 007    86    82   4918 22.9470  1.3394 12.3802  4.2309  4.4968 0.67314  9.925 23.332 27.446 24.901  0.0000  0.0000  0.0000
 2001 008    87    83   5073 33.1036  1.2107 17.4349  6.3739  4.6689 1.74074  9.949 23.319 26.974 23.174  0.0000  0.0000  0.0000
 2001 009    88    84   5257 37.9357  1.3141 20.1718  6.8260  5.3076 2.32155 10.015 23.398 28.216 23.735  0.0000  0.0000  0.0000
 2001 010    89    85   5294 17.3441  0.1100  9.1931  3.0412  2.8234 0.22922 10.098 23.485 21.809 19.444  6.1803 19.1649 33.7081
 2001 011    90    86   5462 35.4240  0.9817 18.8883  6.9209  3.2038 2.01990 10.169 23.603 21.303 17.862  6.2276 18.0589 34.5184
 2001 012    91    87   5638 34.7088  0.9597 19.6609  6.5127  3.0451 2.44826 10.285 23.814 21.832 16.886  6.2671 17.4474 34.8831
 2001 013    92    88   5805 36.0037  1.3316 19.6092  7.0899  4.3106 2.01762 10.335 23.858 25.634 20.437  6.2229 18.5906 34.0163
 2001 014    93    89   5892 29.8076  1.7934 15.4061  5.8251  5.8012 0.81660 10.258 23.582 28.955 25.407  6.3311 19.3523 32.5785
 2001 015    94    90   6018 37.5384  1.7819 18.5164  7.7393  5.9669 1.46567 10.231 23.438 27.252 24.493  6.3617 19.7802 31.9594
 2001 016    95    91   6102 35.4499  1.8360 17.7451  7.0288  6.1236 1.27277 10.189 23.254 28.523 24.904  6.3902 20.0144 31.5466
 2001 017    96    92   6168 27.0957  1.7608 14.5247  5.9253  4.9279 0.00000 10.058 22.842 25.626 23.333  6.3633 20.1788 31.5508
 2001 018    97    93   6217 23.9888  1.7585 12.6910  5.1273  4.7227 0.00000  9.926 22.427 24.521 23.267  6.3466 20.2696 31.5639
 2001 019    98    94   6285 26.6937  1.6703 14.0010  5.9299  4.5885 0.00000  9.803 22.030 25.248 22.238  6.3193 20.2897 31.7146
 2001 020    99    95   6449 39.6110  1.4875 22.1273  8.1508  4.5290 1.66844  9.835 22.043 24.193 20.000  6.2888 20.1196 32.0754
 2001 021   100    96   6584 39.5006  1.4909 19.9795  9.2565  4.4294 1.25493  9.832 21.967 24.386 19.406  6.2681 19.9320 32.3923
 2001 022   101    97   6634 25.2326  1.7096 13.4395  5.7405  4.5222 0.00000  9.707 21.566 26.265 21.500  6.2562 19.9731 32.4259
 2001 023   102    98   6749 39.2277  1.8906 19.2708  9.0704  6.5099 0.50764  9.606 21.231 28.757 24.243  6.2801 20.0667 32.1824
 2001 024   103    99   6854 38.6034  1.8693 20.1646  8.4237  6.6691 0.49022  9.505 20.898 29.996 24.300  6.2986 20.1356 31.9983
 2001 025   104   100   6935 37.5541  2.0002 17.9708  8.7447  7.4021 0.00000  9.348 20.415 30.549 26.036  6.3374 20.1920 31.6989
 2001 026   105   101   6960 33.2985  2.0160 15.9238  7.5580  7.5656 0.00000  9.188 19.923 31.575 26.883  6.3786 20.2362 31.3973
 2001 027   106   102   6964 19.0034  1.8427 10.0328  4.4606  4.9524 0.00000  9.044 19.467 24.955 23.559  6.3710 20.2781 31.4032
 2001 028   107   103   6978 15.5538  1.5516  8.9133  3.8348  3.5652 0.00000  8.933 19.079 21.166 20.056  6.3426 20.1680 31.6909
 2001 029   108   104   7081 36.0343  1.4954 17.9755  9.2219  4.5718 0.00000  8.832 18.702 24.837 19.573  6.3225 20.0551 31.9290
 2001 030   109   105   7166 36.4019  1.5944 18.5532  9.1585  5.1134 0.00000  8.718 18.294 24.894 21.063  6.3066 20.0478 32.0362
 2001 031   110   106   7245 34.3757  1.7617 16.7794  8.4513  6.5219 0.00000  8.580 17.832 28.750 24.311  6.3173 20.1013 31.9157
 2001 032   111   107   7290 28.0949  1.8135 13.7564  6.8154  6.6195 0.00000  8.433 17.348 28.870 25.505  6.3382 20.1463 31.7400
 2001 033   112   108   7363 34.8263  1.7866 16.2072  8.5364  7.7016 0.00000  8.285 16.860 30.726 26.502  6.3647 20.1835 31.5371
 2001 034   113   109   7450 32.7184  1.5173 16.3480  8.7381  5.1618 0.00000  8.161 16.441 24.491 21.448  6.3473 20.1782 31.6513
 2001 035   114   110   7545 34.1899  1.4812 16.7941  9.0281  5.3944 0.00000  8.036 16.023 26.531 21.342  6.3329 20.1704 31.7491
 2001 036   115   111   7628 33.2128  1.5567 16.0417  8.7264  6.0058 0.00000  7.898 15.576 26.241 23.092  6.3290 20.1999 31.7436
 2001 037   116   112   7695 33.0000  1.5202 15.5631  8.6376  6.5906 0.00000  7.758 15.129 29.390 23.880  6.3316 20.2260 31.7012
 2001 038   117   113   7770 32.3982  1.2010 14.2534  8.1632  8.2673 0.12196  7.684 14.824 32.285 27.276  6.3824 20.1957 31.4141
 2001 039   118   114   7790 19.0648  1.4800  9.5919  4.1106  6.1155 0.01551  7.541 14.375 28.514 25.080  6.3896 20.2047 31.3602
 2001 040   119   115   7840 27.3099  1.1912 12.3013  6.5852  7.3059 0.09574  7.449 14.044 30.604 26.169  6.4176 20.1862 31.2039
 2001 041   120   116   7845 16.0793  1.4891  7.8940  2.8878  6.4804 0.00023  7.283 13.562 29.891 26.422  6.4238 20.1979 31.1532
 2001 042   121   117   7898 24.2989  1.2728 10.7752  5.5187  7.5112 0.05436  7.153 13.166 31.551 27.261  6.4443 20.1936 31.0294
 2001 043   122   118   7964 21.6447  0.9653 10.8931  5.5859  3.9645 0.05706  7.059 12.868 23.079 19.362  6.4412 20.1242 31.1182
 2001 044   123   119   8049 26.6765  0.8864 12.6645  7.2194  4.6819 0.08950  6.979 12.608 25.658 20.440  6.4413 20.0754 31.1662
 2001 045   124   120   8125 25.8746  0.9837 11.9278  6.8628  5.3970 0.07960  6.877 12.304 26.919 22.596  6.4445 20.0674 31.1548
 2001 046   125   121   8188 22.9842  0.9590 10.4527  5.8769  5.3227 0.08559  6.773 12.006 26.750 22.998  6.4502 20.0583 31.1277
 2001 047   126   122   8263 24.9364  0.9016 11.4288  6.7609  4.9288 0.08192  6.670 11.722 26.078 21.684  6.4514 20.0418 31.1366
 2001 048   127   123   8327 22.5738  0.9324 10.1541  5.8968  5.1108 0.07408  6.553 11.417 27.097 22.526  6.4541 20.0348 31.1270
 2001 049   128   124   8372 20.2776  1.0381  8.5640  4.8399  6.1788 0.06104  6.408 11.062 29.504 25.684  6.4636 20.0324 31.0700
 2001 050   129   125   8418 20.2530  0.9807  8.3647  4.8656  6.1735 0.06647  6.265 10.725 30.059 25.668  6.4732 20.0284 31.0142
 2001 051   130   126   8468 20.5744  0.8986  8.5208  5.1268  5.7450 0.07471  6.133 10.417 29.318 24.606  6.4807 20.0228 30.9727
 2001 052   131   127   8499 15.1317  1.0312  6.5235  3.5166  4.9588 0.02400  5.955 10.029 27.168 23.778  6.4808 20.0267 30.9679
 2001 053   132   128   8541 18.7289  1.1317  7.7815  3.2447  6.5330 0.00000  5.745  9.583 30.882 27.065  6.4247 20.1616 31.1842
 2001 054   133   129   8307 15.9030  1.0333  6.8970  2.5991  5.4200 0.00000  5.474  8.646 28.970 24.904  6.3733 20.2754 31.3913
 2001 055   134   130   8074  7.4910  0.8523  2.8806  1.0415  4.3606 0.00000  5.217  7.835 27.607 24.113  6.3734 20.2774 31.3890
 2001 056   135   131   7890  5.0718  0.6995  1.6785  0.4815  3.6672 0.00000  4.972  7.141 25.762 22.874  6.3729 20.2782 31.3911
 2001 057   136   132   7741  4.9910  0.6254  1.3122  0.3764  3.9799 0.00000  4.725  6.525 26.649 24.439  6.3730 20.2791 31.3894
 2001 058   137   133   7620  5.1455  0.5535  1.1618  0.3333  4.2567 0.00000  4.483  5.981 28.537 25.616  6.3735 20.2798 31.3857
 2001 059   138   134   7523  4.9867  0.4796  1.0594  0.3039  4.1505 0.00000  4.255  5.509 29.262 25.486  6.3739 20.2805 31.3826
 2001 060   139   135   7438  3.6308  0.4322  0.0000  0.0000  4.4780 0.00000  4.025  5.091 31.630 27.108  6.3739 20.2805 31.3826
 2001 061   140   136   7356  1.9415  0.3671  0.0000  0.0000  3.2450 0.00000  3.817  4.735 25.650 23.479  6.3739 20.2805 31.3826
 2001 062   141   137   7298  2.5468  0.3476  0.0000  0.0000  4.0368 0.00000  3.612  4.410 30.609 26.303  6.3739 20.2805 31.3826
 2001 063   142   138   7250  2.1822  0.3176  0.0000  0.0000  4.0875 0.00000  3.416  4.119 31.345 26.684  6.3739 20.2805 31.3826
 2001 064   143   139   7200  1.4918  0.2921  0.0000  0.0000  4.0529 0.00000  3.230  3.857 31.606 26.875  6.3739 20.2805 31.3826
 2001 065   144   140   7166  1.1890  0.2632  0.0000  0.0000  3.3706 0.00000  3.059  3.625 27.998 24.621  6.3739 20.2805 31.3826

*DSSAT Cropping System Model Ver. 4.6.1.000 -release      OCT 17, 2016; 12:01:09
                                                                                
*RUN   2        : UYSB                      CRGRO046 UYSB0876    1              
 MODEL          : CRGRO046 - Soybean                                            
 EXPERIMENT     : UYSB0876 SN late to create DSS                                
 DATA PATH      :                                                               
 TREATMENT  1   : UYSB                      CRGRO046                            
  
@YEAR DOY   DAS   DAP   TWAD    PHAD    CMAD    CGRD    GRAD    MRAD    CHAD   CL%D   CS%D   TGNN   TGAV    GN%D    GL%D    GC%D
 2001 291     4     0      0  0.0000  0.0000  0.0000  0.0000  0.0000 0.00000  0.000  0.000 25.509 21.301  0.0000  0.0000  0.0000
 2001 292     5     1      0  0.0000  0.0000  0.0000  0.0000  0.0000 0.00000  0.000  0.000 24.857 21.219  0.0000  0.0000  0.0000
 2001 293     6     2      0  0.0000  0.0000  0.0000  0.0000  0.0000 0.00000  0.000  0.000 25.701 21.205  0.0000  0.0000  0.0000
 2001 294     7     3      0  0.0000  0.0000  0.0000  0.0000  0.0000 0.00000  0.000  0.000 17.838 14.840  0.0000  0.0000  0.0000
 2001 295     8     4      0  0.0000  0.0000  0.0000  0.0000  0.0000 0.00000  0.000  0.000 17.514 13.730  0.0000  0.0000  0.0000
 2001 296     9     5      0  0.0000  0.0000  0.0000  0.0000  0.0000 0.00000  0.000  0.000 20.643 15.002  0.0000  0.0000  0.0000
 2001 297    10     6      8  0.0000  0.0004  0.0003  0.0001  0.0000 0.00000  3.949  7.894 24.462 18.605  0.0000  0.0000  0.0000
 2001 298    11     7      9  0.1845  0.0006  0.1136  0.0387  0.0161 0.00000  3.894  7.791 29.719 23.253  0.0000  0.0000  0.0000
 2001 299    12     8      9  0.1000  0.0006  0.0624  0.0211  0.0087 0.00000  3.843  7.696 22.054 20.732  0.0000  0.0000  0.0000
 2001 300    13     9     10  0.0920  0.0006  0.0574  0.0195  0.0077 0.00000  3.799  7.614 20.291 19.541  0.0000  0.0000  0.0000
 2001 301    14    10     10  0.1135  0.0006  0.0724  0.0225  0.0100 0.00000  3.755  7.538 22.667 20.880  0.0000  0.0000  0.0000
 2001 302    15    11     11  0.1275  0.0007  0.0822  0.0247  0.0110 0.00000  3.716  7.474 22.952 20.879  0.0000  0.0000  0.0000
 2001 303    16    12     13  0.2466  0.0006  0.1594  0.0504  0.0131 0.00000  3.694  7.485 20.378 17.625  0.0000  0.0000  0.0000
 2001 304    17    13     14  0.2693  0.0006  0.1764  0.0537  0.0139 0.00000  3.676  7.493 20.718 17.071  0.0000  0.0000  0.0000
 2001 305    18    14     16  0.3017  0.0007  0.1982  0.0590  0.0162 0.00000  3.659  7.498 22.030 17.166  0.0000  0.0000  0.0000
 2001 306    19    15     18  0.2667  0.0007  0.1752  0.0523  0.0141 0.00000  3.642  7.489 20.184 16.428  0.0000  0.0000  0.0000
 2001 307    20    16     20  0.3091  0.0008  0.2037  0.0609  0.0161 0.00000  3.627  7.484 20.729 16.329  0.0000  0.0000  0.0000
 2001 308    21    17     22  0.3556  0.0010  0.2198  0.0826  0.0206 0.00000  3.644  7.448 22.006 17.534  0.0000  0.0000  0.0000
 2001 309    22    18     25  0.4538  0.0014  0.2771  0.1033  0.0333 0.00000  3.650  7.406 26.353 20.485  0.0000  0.0000  0.0000
 2001 310    23    19     27  0.3277  0.0017  0.1991  0.0721  0.0298 0.00000  3.624  7.340 25.216 21.745  0.0000  0.0000  0.0000
 2001 311    24    20     28  0.1966  0.0011  0.1191  0.0467  0.0143 0.00000  3.612  7.292 17.402 16.399  0.0000  0.0000  0.0000
 2001 312    25    21     31  0.4533  0.0013  0.2875  0.0984  0.0263 0.00000  3.607  7.300 20.523 17.551  0.0000  0.0000  0.0000
 2001 313    26    22     34  0.5670  0.0015  0.3775  0.1136  0.0342 0.00000  3.631  7.319 22.431 18.206  0.0000  0.0000  0.0000
 2001 314    27    23     37  0.4496  0.0022  0.3029  0.0866  0.0389 0.00000  3.647  7.274 24.143 21.207  0.0000  0.0000  0.0000
 2001 315    28    24     42  0.9617  0.0021  0.5722  0.2145  0.0589 0.00000  3.635  7.323 23.999 19.416  0.0000  0.0000  0.0000
 2001 316    29    25     49  1.0727  0.0027  0.6672  0.2226  0.0761 0.00000  3.626  7.354 25.963 21.022  0.0000  0.0000  0.0000
 2001 317    30    26     53  0.6120  0.0029  0.3806  0.1243  0.0481 0.00000  3.599  7.324 22.810 19.766  0.0000  0.0000  0.0000
 2001 318    31    27     59  1.1161  0.0033  0.7054  0.2245  0.0776 0.00000  3.586  7.346 23.253 20.567  0.0000  0.0000  0.0000
 2001 319    32    28     68  1.4278  0.0034  0.8940  0.3088  0.0882 0.00000  3.600  7.369 23.426 19.379  0.0000  0.0000  0.0000
 2001 320    33    29     75  1.1440  0.0028  0.7180  0.2615  0.0554 0.00000  3.615  7.374 18.819 15.774  0.0000  0.0000  0.0000
 2001 321    34    30     85  1.5361  0.0033  0.9792  0.3342  0.0787 0.00000  3.622  7.404 22.213 16.302  0.0000  0.0000  0.0000
 2001 322    35    31     97  2.0138  0.0054  1.2644  0.4388  0.1408 0.00000  3.616  7.418 26.580 20.310  0.0000  0.0000  0.0000
 2001 323    36    32    109  1.9765  0.0071  1.2273  0.4198  0.1664 0.00000  3.595  7.401 27.861 22.308  0.0000  0.0000  0.0000
 2001 324    37    33    124  2.4597  0.0084  1.5002  0.5293  0.2290 0.00000  3.584  7.383 30.191 23.920  0.0000  0.0000  0.0000
 2001 325    38    34    134  1.8102  0.0098  1.1061  0.3835  0.1760 0.00000  3.553  7.331 25.811 23.231  0.0000  0.0000  0.0000
 2001 326    39    35    150  2.7317  0.0107  1.6828  0.5762  0.2481 0.00000  3.535  7.319 27.927 23.556  0.0000  0.0000  0.0000
 2001 327    40    36    170  3.2820  0.0130  1.9890  0.6767  0.3507 0.00000  3.514  7.307 31.275 25.971  0.0000  0.0000  0.0000
 2001 328    41    37    175  1.2909  0.0081  0.7842  0.3071  0.0955 0.00000  3.510  7.262 19.217 16.637  0.0000  0.0000  0.0000
 2001 329    42    38    186  1.8322  0.0067  1.1354  0.4360  0.0968 0.00000  3.523  7.250 18.046 14.749  0.0000  0.0000  0.0000
 2001 330    43    39    193  1.6141  0.0102  1.0303  0.3510  0.1278 0.00000  3.533  7.202 19.715 18.174  0.0000  0.0000  0.0000
 2001 331    44    40    220  4.6880  0.0125  2.9106  1.0570  0.3078 0.00000  3.591  7.217 23.551 20.253  0.0000  0.0000  0.0000
 2001 332    45    41    250  4.9154  0.0119  2.9371  1.1662  0.2729 0.00000  3.605  7.237 22.041 17.919  0.0000  0.0000  0.0000
 2001 333    46    42    280  4.9650  0.0132  3.2746  1.0724  0.2750 0.00000  3.644  7.252 21.511 17.568  0.0000  0.0000  0.0000
 2001 334    47    43    289  1.9735  0.0113  0.9324  0.5403  0.1277 0.00063  3.603  7.221 16.605 15.028  0.0000  0.0000  0.0000
 2001 335    48    44    328  6.5667  0.0165  3.9511  1.5131  0.3787 0.01978  3.658  7.389 22.608 18.378  0.0000  0.0000  0.0000
 2001 336    49    45    374  7.6539  0.0205  4.6281  1.7243  0.4706 0.04456  3.752  7.671 23.616 19.135  0.0000  0.0000  0.0000
 2001 337    50    46    397  3.8713  0.0206  2.3100  0.8753  0.2632 0.03155  3.787  7.797 19.785 17.348  0.0000  0.0000  0.0000
 2001 338    51    47    423  4.4053  0.0239  2.6168  0.9950  0.3166 0.04715  3.841  7.982 21.185 18.209  0.0000  0.0000  0.0000
 2001 339    52    48    463  6.7970  0.0293  4.0272  1.5354  0.4752 0.09223  3.956  8.346 21.795 19.644  0.0000  0.0000  0.0000
 2001 340    53    49    523 10.0337  0.0348  5.9112  2.3076  0.6792 0.16582  4.145  8.922 23.626 20.221  0.0000  0.0000  0.0000
 2001 341    54    50    595 12.2925  0.0456  7.1115  2.8420  0.9269 0.23874  4.361  9.576 26.465 21.554  0.0000  0.0000  0.0000
 2001 342    55    51    650  9.1531  0.0314  5.3710  2.2072  0.4307 0.19864  4.510 10.030 17.910 15.258  0.0000  0.0000  0.0000
 2001 343    56    52    708  9.4815  0.0292  5.5634  2.2939  0.4163 0.22141  4.657 10.471 19.348 13.578  0.0000  0.0000  0.0000
 2001 344    57    53    789 13.5858  0.0534  7.8608  3.2226  0.8001 0.34763  4.849 11.040 22.784 17.910  0.0000  0.0000  0.0000
 2001 345    58    54    866 13.2350  0.0622  7.5499  3.1458  0.8176 0.36750  5.025 11.535 23.065 17.869  0.0000  0.0000  0.0000
 2001 346    59    55    946 14.5716  0.0999  8.0623  3.3509  1.3017 0.44047  5.198 12.011 27.360 22.415  0.0000  0.0000  0.0000
 2001 347    60    56   1031 15.5308  0.1244  8.4586  3.5372  1.5123 0.51815  5.375 12.496 26.914 23.725  0.0000  0.0000  0.0000
 2001 348    61    57   1134 18.2961  0.1347 10.4693  3.9748  1.6380 0.71018  5.626 13.131 25.774 23.015  0.0000  0.0000  0.0000
 2001 349    62    58   1259 21.3815  0.1360 12.3217  4.6089  1.6108 0.92252  5.919 13.874 24.495 20.984  0.0000  0.0000  0.0000
 2001 350    63    59   1383 21.0886  0.1468 12.1420  4.5423  1.5198 0.97682  6.167 14.526 24.117 19.853  0.0000  0.0000  0.0000
 2001 351    64    60   1533 25.3549  0.1807 14.4781  5.4482  1.9500 1.24564  6.435 15.235 26.252 20.734  0.0000  0.0000  0.0000
 2001 352    65    61   1687 26.6369  0.2131 14.2097  6.1377  2.0904 1.29669  6.612 15.812 25.925 20.873  0.0000  0.0000  0.0000
 2001 353    66    62   1793 21.5485  0.2767 10.7491  4.9415  2.2469 1.03527  6.761 16.167 28.125 23.073  0.0000  0.0000  0.0000
 2001 354    67    63   1899 21.0210  0.3311 10.7953  4.5753  2.5824 1.10587  6.896 16.497 29.365 24.958  0.0000  0.0000  0.0000
 2001 355    68    64   1942 11.1829  0.2302  6.4807  2.2469  1.0897 0.65273  7.014 16.688 19.775 18.091  0.0000  0.0000  0.0000
 2001 356    69    65   2110 28.4616  0.2860 16.2127  5.8148  2.1890 1.78009  7.276 17.341 23.210 20.272  0.0000  0.0000  0.0000
 2001 357    70    66   2286 29.8787  0.2864 16.0036  6.4504  2.1525 1.84860  7.465 17.912 24.620 18.744  0.0000  0.0000  0.0000
 2001 358    71    67   2469 31.9495  0.3643 18.6152  6.2438  2.5875 2.21874  7.786 18.578 25.265 20.320  0.0000  0.0000  0.0000
 2001 359    72    68   2677 33.5523  0.0000 19.2819  5.5107  2.9470 2.95141  8.275 19.772 26.358 21.127  0.0000  0.0000  0.0000
 2001 360    73    69   2891 34.3169  0.0000 18.2859  4.9785  3.4814 4.65915  9.110 21.926 28.284 22.587  0.0000  0.0000  0.0000
 2001 361    74    70   3099 34.3668  0.0000 17.9299  4.8118  4.1461 4.63090  9.861 23.799 29.723 24.671  0.0000  0.0000  0.0000
 2001 362    75    71   3304 34.0268  0.0000 17.7372  4.8095  4.0578 4.53888 10.527 25.414 29.109 24.021  0.0000  0.0000  0.0000
 2001 363    76    72   3498 33.3924  0.0000 17.7185  4.9079  4.1950 3.72350 10.994 26.460 28.481 24.396  0.0000  0.0000  0.0000
 2001 364    77    73   3681 33.3865  1.0644 18.8532  5.9016  4.5867 2.54389 11.018 26.392 29.720 25.205  0.0000  0.0000  0.0000
 2001 365    78    74   3823 28.5803  1.1185 15.3644  5.2202  4.3526 1.99485 11.017 26.276 29.645 25.202  0.0000  0.0000  0.0000
 2002 001    79    75   4038 36.7997  0.0000 18.5039  5.5595  4.1716 5.00385 11.631 27.724 26.851 22.694  0.0000  0.0000  0.0000
 2002 002    80    76   4233 35.0838  0.0000 18.7329  5.7624  4.2566 2.90042 11.905 28.239 26.783 22.984  0.0000  0.0000  0.0000
 2002 003    81    77   4442 37.5106  1.1863 21.3009  6.9413  4.2223 2.81486 11.938 28.202 25.968 22.133  0.0000  0.0000  0.0000
 2002 004    82    78   4626 34.7422  1.2307 19.2695  6.5169  4.1670 2.43743 11.955 28.137 26.380 22.042  0.0000  0.0000  0.0000
 2002 005    83    79   4681 16.5187  0.3847  8.8922  3.1417  2.7413 0.25083 12.013 28.146 21.498 20.422  0.0000  0.0000  0.0000
 2002 006    84    80   4805 28.6317  1.2984 15.2623  5.6878  3.6639 1.48355 11.986 27.983 23.874 21.401  6.2008 20.1181 32.6267
 2002 007    85    81   4975 34.1372  1.1251 18.7340  6.6161  3.2656 2.31651 12.039 27.996 22.443 18.822  6.1950 19.0778 33.7032
 2002 008    86    82   5177 38.1404  1.3209 21.1059  7.0633  4.1547 2.75342 12.098 28.026 26.339 20.317  6.1856 19.4035 33.4367
 2002 009    87    83   5345 35.7925  1.5207 19.2235  7.0607  4.3949 2.21850 12.110 27.950 25.650 21.528  6.1930 19.6885 33.1051
 2002 010    88    84   5497 36.6338  1.6701 20.4956  6.9065  4.9193 2.12714 12.109 27.842 27.292 22.489  6.2129 19.9271 32.7421
 2002 011    89    85   5621 34.7642  1.8873 17.4203  7.2454  5.6082 1.39777 12.046 27.592 28.765 24.428  6.2952 20.1695 31.9854
 2002 012    90    86   5771 37.5848  1.9828 19.2352  7.4943  6.3933 1.58170 11.991 27.360 30.446 25.535  6.3677 20.2836 31.4180
 2002 013    91    87   5887 36.0092  2.0956 17.8388  7.3508  6.6799 1.26282 11.908 27.065 30.865 26.277  6.4251 20.3447 30.9985
 2002 014    92    88   5949 21.2429  1.4473 12.0158  4.6276  3.2455 0.04090 11.818 26.750 22.505 19.351  6.3568 19.9968 31.7733
 2002 015    93    89   6076 30.8499  1.3909 15.8289  7.2837  3.1169 0.64118 11.769 26.540 21.627 17.218  6.3366 19.3915 32.5049
 2002 016    94    90   6194 32.2622  1.4768 17.0578  7.2360  3.3724 1.04137 11.739 26.381 22.269 17.718  6.3180 19.0969 32.9157
 2002 017    95    91   6302 32.5191  1.6385 17.1123  7.3440  3.8437 0.86835 11.682 26.157 23.770 18.968  6.2929 19.0479 33.1216
 2002 018    96    92   6406 34.5292  1.6848 18.2965  7.9178  3.9773 0.72142 11.611 25.899 23.299 19.106  6.2717 19.0269 33.2751
 2002 019    97    93   6509 36.5707  1.8983 18.7079  8.3514  4.9677 0.82039 11.525 25.608 26.602 21.120  6.2558 19.2248 33.1765
 2002 020    98    94   6567 33.3182  2.2247 16.5670  7.1652  6.9869 0.22344 11.363 25.131 32.151 26.023  6.3104 19.4626 32.5976
 2002 021    99    95   6612 28.2587  2.2274 14.4693  6.3621  5.7812 0.00000 11.185 24.604 27.761 24.536  6.3313 19.6660 32.2634
 2002 022   100    96   6680 34.3063  2.2356 16.6274  7.8049  6.9169 0.00000 11.002 24.068 30.506 25.849  6.3662 19.8105 31.9006
 2002 023   101    97   6743 32.5270  2.1443 16.0791  7.4086  6.6124 0.00000 10.827 23.547 30.829 25.204  6.3836 19.9195 31.6830
 2002 024   102    98   6726 22.2122  2.1554 11.5110  4.9669  5.4890 0.00000 10.649 23.017 28.042 24.531  6.3887 20.0103 31.5600
 2002 025   103    99   6781 32.6612  2.0929 16.0690  7.7351  6.0994 0.00000 10.476 22.491 27.911 24.328  6.3903 20.0861 31.4747
 2002 026   104   100   6797 20.8054  1.9187 11.2115  4.8623  4.5422 0.00000 10.320 22.003 24.825 22.318  6.3683 20.1276 31.5703
 2002 027   105   101   6784 25.5432  1.9557 12.9311  6.2118  5.1635 0.00000 10.161 21.496 25.651 23.215  6.3592 20.1770 31.5777
 2002 028   106   102   6844 33.8847  1.9011 16.3563  8.3199  6.1194 0.00000 10.003 20.990 29.128 23.828  6.3586 20.2199 31.5389
 2002 029   107   103   6905 33.4287  1.8918 16.2046  8.0938  6.5982 0.00000  9.841 20.476 30.742 24.726  6.3678 20.2542 31.4470
 2002 030   108   104   6956 31.9276  1.8852 15.5255  7.9606  6.2876 0.00000  9.675 19.954 29.085 24.466  6.3730 20.2842 31.3843
 2002 031   109   105   6992 27.3705  1.8145 13.6507  6.8486  5.4662 0.00000  9.514 19.441 26.487 23.408  6.3664 20.3096 31.4003
 2002 032   110   106   7063 32.2832  1.6153 16.1613  8.3958  4.7955 0.00000  9.373 18.977 24.155 21.005  6.3463 20.2713 31.5644
 2002 033   111   107   7147 28.8472  1.4281 14.9912  8.0825  3.8156 0.00000  9.249 18.559 22.927 18.452  6.3321 20.0892 31.8351
 2002 034   112   108   7227 27.6673  1.3791 14.2945  7.8344  3.6398 0.00000  9.127 18.149 22.565 17.948  6.3224 19.8996 32.0856
 2002 035   113   109   7313 30.2974  1.4978 15.2270  8.3127  4.6556 0.00000  8.988 17.694 25.174 20.343  6.3089 19.8787 32.1905
 2002 036   114   110   7368 23.5318  1.3321 11.9852  6.1124  4.7860 0.06418  8.884 17.313 26.026 21.589  6.3165 19.8700 32.1516
 2002 037   115   111   7419 23.0422  1.2471 11.7022  5.9434  4.6643 0.07933  8.792 16.960 24.837 21.438  6.3262 19.8517 32.1092
 2002 038   116   112   7486 25.7593  1.1703 12.8790  6.9505  4.6425 0.08595  8.706 16.626 24.674 20.882  6.3341 19.8200 32.0920
 2002 039   117   113   7533 22.9539  1.2385 11.5439  5.9244  4.7599 0.06825  8.601 16.253 24.801 21.581  6.3398 19.8141 32.0625
 2002 040   118   114   7560 13.5943  1.2441  7.8118  3.2494  3.3765 0.01638  8.470 15.842 21.386 18.883  6.3370 19.7676 32.1259
 2002 041   119   115   7628 24.4309  1.2077 11.8851  6.3780  5.1198 0.06942  8.355 15.462 25.365 22.326  6.3440 19.7759 32.0740
 2002 042   120   116   7698 24.4414  1.1077 11.6802  6.4308  5.0137 0.08455  8.250 15.116 26.647 21.856  6.3516 19.7719 32.0305
 2002 043   121   117   7731 15.6908  1.2764  8.1134  3.5553  4.3438 0.02523  8.094 14.672 23.725 21.831  6.3510 19.7802 32.0260
 2002 044   122   118   7791 23.0684  1.1604 10.6770  5.8868  5.5112 0.07157  7.961 14.285 27.572 23.605  6.3613 19.7891 31.9526
 2002 045   123   119   7852 23.7497  1.0900 10.4907  5.9980  6.0501 0.09114  7.836 13.926 29.457 24.741  6.3779 19.7908 31.8476
 2002 046   124   120   7910 22.5154  1.0977 10.0341  5.7203  5.6826 0.07630  7.697 13.549 28.654 24.188  6.3890 19.7954 31.7731
 2002 047   125   121   7973 21.3132  0.9374  9.9697  5.8024  4.1949 0.08138  7.578 13.229 24.359 20.644  6.3926 19.7732 31.7728
 2002 048   126   122   8035 20.8025  0.8716  9.7133  5.7781  3.9051 0.08627  7.466 12.933 24.046 19.832  6.3967 19.7369 31.7841
 2002 049   127   123   8091 19.2148  0.9449  8.9920  5.2657  3.9121 0.06102  7.325 12.589 24.410 20.126  6.3977 19.7153 31.7990
 2002 050   128   124   8128 16.1475  1.0287  7.2294  3.9319  4.4916 0.05183  7.157 12.200 26.494 22.424  6.4006 19.7182 31.7781
 2002 051   129   125   8147 13.2070  1.0807  5.9216  2.9194  4.3983 0.03102  6.966 11.772 25.714 22.894  6.4020 19.7247 31.7626
 2002 052   130   126   8193 16.9916  1.1026  7.9211  3.3802  4.2844 0.00000  6.752 11.311 24.809 21.991  6.3560 19.8248 31.9504
 2002 053   131   127   7990 16.3931  0.9412  7.6434  2.7263  4.4656 0.03992  6.502 10.421 25.839 22.628  6.2937 19.9628 32.2017
 2002 054   132   128   7818 11.8027  0.8405  5.4431  2.8799  3.2879 0.00000  6.235  9.600 23.776 19.960  6.2845 19.9696 32.2523
 2002 055   133   129   7681  7.8269  0.6264  3.9509  1.7272  2.0431 0.00000  6.009  8.930 20.150 15.586  6.2617 19.9672 32.3970
 2002 056   134   130   7563  8.3138  0.6206  3.4711  1.8099  3.1691 0.00000  5.758  8.299 27.266 19.958  6.2608 19.9621 32.4077
 2002 057   135   131   7455  6.2639  0.6199  1.8678  0.6392  4.3796 0.00000  5.482  7.697 31.053 25.600  6.2622 19.9651 32.3960
 2002 058   136   132   7361  4.8241  0.5524  0.7964  0.2285  4.3904 0.00000  5.206  7.160 31.813 26.291  6.2630 19.9663 32.3901
 2002 059   137   133   7276  3.1004  0.5070  0.0000  0.0000  4.3863 0.00000  4.925  6.673 31.392 27.224  6.2630 19.9663 32.3901
 2002 060   138   134   7214  2.7957  0.3858  0.6246  0.1792  2.4091 0.00000  4.706  6.285 23.356 19.581  6.2628 19.9650 32.3924
 2002 061   139   135   7160  2.4070  0.3608  0.1003  0.0288  2.6428 0.00000  4.487  5.930 26.400 20.455  6.2628 19.9649 32.3926
 2002 062   140   136   7113  1.8984  0.3578  0.0000  0.0000  3.3585 0.00000  4.260  5.590 29.737 23.901  6.2628 19.9649 32.3926
 2002 063   141   137   7067  1.2559  0.3514  0.0000  0.0000  3.7718 0.00000  4.031  5.265 30.021 26.215  6.2628 19.9649 32.3926
 2002 064   142   138   7034  0.5311  0.2942  0.0000  0.0000  2.5446 0.00000  3.834  4.992 22.612 21.509  6.2628 19.9649 32.3926

*DSSAT Cropping System Model Ver. 4.6.1.000 -release      OCT 17, 2016; 12:01:09
                                                                                
*RUN   3        : UYSB                      CRGRO046 UYSB0876    1              
 MODEL          : CRGRO046 - Soybean                                            
 EXPERIMENT     : UYSB0876 SN late to create DSS                                
 DATA PATH      :                                                               
 TREATMENT  1   : UYSB                      CRGRO046                            
  
@YEAR DOY   DAS   DAP   TWAD    PHAD    CMAD    CGRD    GRAD    MRAD    CHAD   CL%D   CS%D   TGNN   TGAV    GN%D    GL%D    GC%D
 2002 291     4     0      0  0.0000  0.0000  0.0000  0.0000  0.0000 0.00000  0.000  0.000 23.681 18.938  0.0000  0.0000  0.0000
 2002 292     5     1      0  0.0000  0.0000  0.0000  0.0000  0.0000 0.00000  0.000  0.000 23.483 21.557  0.0000  0.0000  0.0000
 2002 293     6     2      0  0.0000  0.0000  0.0000  0.0000  0.0000 0.00000  0.000  0.000 23.822 19.611  0.0000  0.0000  0.0000
 2002 294     7     3      0  0.0000  0.0000  0.0000  0.0000  0.0000 0.00000  0.000  0.000 12.099  9.957  0.0000  0.0000  0.0000
 2002 295     8     4      0  0.0000  0.0000  0.0000  0.0000  0.0000 0.00000  0.000  0.000 16.820 11.858  0.0000  0.0000  0.0000
 2002 296     9     5      0  0.0000  0.0000  0.0000  0.0000  0.0000 0.00000  0.000  0.000 20.614 14.901  0.0000  0.0000  0.0000
 2002 297    10     6      0  0.0000  0.0000  0.0000  0.0000  0.0000 0.00000  0.000  0.000 24.788 21.395  0.0000  0.0000  0.0000
 2002 298    11     7      8  0.0000  0.0005  0.0003  0.0001  0.0000 0.00000  3.947  7.889 21.593 19.164  0.0000  0.0000  0.0000
 2002 299    12     8      9  0.1770  0.0006  0.1321  0.0294  0.0139 0.00000  3.914  7.791 26.091 22.196  0.0000  0.0000  0.0000
 2002 300    13     9      9  0.0991  0.0006  0.0560  0.0223  0.0096 0.00000  3.848  7.684 23.846 21.774  0.0000  0.0000  0.0000
 2002 301    14    10     11  0.1918  0.0007  0.1354  0.0334  0.0156 0.00000  3.820  7.622 25.565 22.313  0.0000  0.0000  0.0000
 2002 302    15    11     11  0.1069  0.0004  0.0618  0.0256  0.0057 0.00000  3.786  7.582 17.235 14.876  0.0000  0.0000  0.0000
 2002 303    16    12     12  0.0911  0.0004  0.0557  0.0202  0.0055 0.00000  3.758  7.541 18.443 14.867  0.0000  0.0000  0.0000
 2002 304    17    13     13  0.2488  0.0006  0.1612  0.0503  0.0135 0.00000  3.732  7.537 21.502 17.569  0.0000  0.0000  0.0000
 2002 305    18    14     15  0.2643  0.0007  0.1720  0.0524  0.0149 0.00000  3.706  7.528 21.636 17.773  0.0000  0.0000  0.0000
 2002 306    19    15     17  0.3045  0.0009  0.1973  0.0589  0.0210 0.00000  3.672  7.505 23.827 20.179  0.0000  0.0000  0.0000
 2002 307    20    16     17  0.1047  0.0007  0.0663  0.0222  0.0077 0.00000  3.649  7.456 16.867 15.544  0.0000  0.0000  0.0000
 2002 308    21    17     18  0.1429  0.0005  0.0923  0.0306  0.0070 0.00000  3.640  7.437 15.211 13.243  0.0000  0.0000  0.0000
 2002 309    22    18     20  0.2330  0.0005  0.1540  0.0472  0.0099 0.00000  3.634  7.444 17.512 13.289  0.0000  0.0000  0.0000
 2002 310    23    19     22  0.2957  0.0008  0.1825  0.0696  0.0146 0.00000  3.653  7.419 19.788 15.243  0.0000  0.0000  0.0000
 2002 311    24    20     24  0.4280  0.0012  0.2640  0.0951  0.0277 0.00000  3.658  7.391 24.037 19.097  0.0000  0.0000  0.0000
 2002 312    25    21     27  0.5157  0.0016  0.3173  0.1111  0.0396 0.00000  3.650  7.364 26.285 21.452  0.0000  0.0000  0.0000
 2002 313    26    22     29  0.2766  0.0014  0.1708  0.0605  0.0208 0.00000  3.629  7.318 19.992 18.452  0.0000  0.0000  0.0000
 2002 314    27    23     31  0.3348  0.0009  0.2092  0.0787  0.0158 0.00000  3.634  7.311 16.726 14.256  0.0000  0.0000  0.0000
 2002 315    28    24     32  0.2846  0.0015  0.1770  0.0610  0.0212 0.00000  3.612  7.278 21.323 17.563  0.0000  0.0000  0.0000
 2002 316    29    25     37  0.8001  0.0017  0.5026  0.1731  0.0484 0.00000  3.622  7.323 24.944 18.677  0.0000  0.0000  0.0000
 2002 317    30    26     43  0.9138  0.0024  0.5619  0.1958  0.0703 0.00000  3.622  7.337 27.936 21.633  0.0000  0.0000  0.0000
 2002 318    31    27     48  0.9200  0.0032  0.5628  0.1932  0.0832 0.00000  3.602  7.329 28.227 23.678  0.0000  0.0000  0.0000
 2002 319    32    28     53  0.8592  0.0034  0.5363  0.1757  0.0717 0.00000  3.574  7.321 24.148 22.214  0.0000  0.0000  0.0000
 2002 320    33    29     61  1.3477  0.0041  0.8267  0.2806  0.1213 0.00000  3.565  7.335 28.677 24.235  0.0000  0.0000  0.0000
 2002 321    34    30     66  0.8081  0.0048  0.4796  0.1763  0.0866 0.00000  3.538  7.267 26.588 23.973  0.0000  0.0000  0.0000
 2002 322    35    31     76  1.7637  0.0051  1.0831  0.3804  0.1512 0.00000  3.538  7.300 27.300 23.932  0.0000  0.0000  0.0000
 2002 323    36    32     86  1.6102  0.0052  1.0337  0.3278  0.1242 0.00000  3.561  7.317 25.989 21.546  0.0000  0.0000  0.0000
 2002 324    37    33     92  1.0941  0.0060  0.6937  0.2195  0.0987 0.00000  3.548  7.280 23.629 21.623  0.0000  0.0000  0.0000
 2002 325    38    34    105  2.0418  0.0055  1.2578  0.4468  0.1304 0.00000  3.546  7.314 22.791 19.638  0.0000  0.0000  0.0000
 2002 326    39    35    120  2.4699  0.0056  1.5671  0.5283  0.1389 0.00000  3.557  7.360 22.804 18.110  0.0000  0.0000  0.0000
 2002 327    40    36    138  2.9307  0.0091  1.8104  0.6008  0.2499 0.00000  3.549  7.367 28.824 23.127  0.0000  0.0000  0.0000
 2002 328    41    37    152  2.5857  0.0126  1.6271  0.4913  0.2741 0.00000  3.558  7.323 28.058 25.585  0.0000  0.0000  0.0000
 2002 329    42    38    160  1.7980  0.0112  1.1209  0.3779  0.1697 0.00000  3.577  7.254 23.837 21.830  0.0000  0.0000  0.0000
 2002 330    43    39    181  3.7619  0.0130  2.1035  0.8749  0.3225 0.00000  3.572  7.229 26.967 23.455  0.0000  0.0000  0.0000
 2002 331    44    40    199  3.1519  0.0150  1.8425  0.6883  0.3093 0.00000  3.560  7.181 27.847 24.012  0.0000  0.0000  0.0000
 2002 332    45    41    212  2.1661  0.0097  1.3227  0.4874  0.1368 0.00000  3.556  7.161 18.431 16.925  0.0000  0.0000  0.0000
 2002 333    46    42    227  2.7449  0.0139  1.6495  0.6025  0.2205 0.00384  3.560  7.172 22.693 20.292  0.0000  0.0000  0.0000
 2002 334    47    43    264  5.9901  0.0000  3.4011  0.9787  0.5222 0.55954  5.352 12.444 27.443 24.110  0.0000  0.0000  0.0000
 2002 335    48    44    279  2.9638  0.0226  1.8372  0.6377  0.2125 0.02370  5.281 12.192 19.568 18.421  0.0000  0.0000  0.0000
 2002 336    49    45    327  7.8245  0.0255  4.7914  1.7046  0.4587 0.08481  5.227 11.990 22.793 19.316  0.0000  0.0000  0.0000
 2002 337    50    46    378  8.0141  0.0000  4.5287  1.2636  0.5577 0.92508  6.954 16.917 25.026 20.832  0.0000  0.0000  0.0000
 2002 338    51    47    400  4.7262  0.0000  2.7584  0.7459  0.3544 0.46874  7.634 18.783 20.570 19.423  0.0000  0.0000  0.0000
 2002 339    52    48    448  8.2609  0.0000  3.9168  0.9562  0.7549 1.91534 10.524 26.506 26.740 23.908  0.0000  0.0000  0.0000
 2002 340    53    49    480  5.8560  0.1090  3.4592  1.1971  0.5760 0.14049 10.104 25.347 24.996 22.845  0.0000  0.0000  0.0000
 2002 341    54    50    529  8.2618  0.0919  4.6427  1.8139  0.5859 0.21343  9.615 24.179 23.328 19.922  0.0000  0.0000  0.0000
 2002 342    55    51    580 10.5232  0.0765  3.8064  3.0100  0.5603 0.19110  8.976 23.184 21.115 17.136  0.0000  0.0000  0.0000
 2002 343    56    52    652 14.2882  0.1067  7.0769  3.4065  0.9489 0.39445  8.727 22.334 23.757 20.424  0.0000  0.0000  0.0000
 2002 344    57    53    696  9.2322  0.1095  4.7565  2.1855  0.6727 0.29009  8.641 21.889 21.992 19.555  0.0000  0.0000  0.0000
 2002 345    58    54    789 16.9988  0.1489  9.1369  3.7786  1.4075 0.61763  8.513 21.346 26.399 23.174  0.0000  0.0000  0.0000
 2002 346    59    55    880 16.5022  0.1489  8.9750  3.7131  1.2434 0.67172  8.451 21.027 24.613 21.424  0.0000  0.0000  0.0000
 2002 347    60    56    959 14.8979  0.1618  7.9075  3.4916  1.1621 0.64040  8.421 20.838 23.934 21.067  0.0000  0.0000  0.0000
 2002 348    61    57   1052 17.6872  0.2120  9.2254  4.0436  1.7037 0.80384  8.418 20.719 27.728 24.037  0.0000  0.0000  0.0000
 2002 349    62    58   1147 18.3606  0.2422  9.4323  4.2026  1.8977 0.87119  8.439 20.676 28.295 24.784  0.0000  0.0000  0.0000
 2002 350    63    59   1276 23.0236  0.2534 12.9784  4.7920  2.0899 1.27938  8.608 20.872 26.756 23.674  0.0000  0.0000  0.0000
 2002 351    64    60   1409 22.7494  0.2548 12.8726  4.7578  1.8578 1.31987  8.723 21.073 25.150 21.782  0.0000  0.0000  0.0000
 2002 352    65    61   1566 26.0723  0.2685 15.2079  5.2934  2.0070 1.61566  8.886 21.382 25.998 20.875  0.0000  0.0000  0.0000
 2002 353    66    62   1607 10.3463  0.2524  4.0275  2.9695  0.9813 0.33528  8.767 21.214 20.469 18.498  0.0000  0.0000  0.0000
 2002 354    67    63   1737 23.4937  0.3053 12.6502  5.1183  1.8757 1.43177  8.887 21.462 23.830 20.677  0.0000  0.0000  0.0000
 2002 355    68    64   1895 28.0647  0.3350 15.5528  5.7480  2.2067 1.88012  9.102 21.860 25.359 20.665  0.0000  0.0000  0.0000
 2002 356    69    65   1954 13.8782  0.4579  7.9171  2.4956  1.9611 0.86299  9.159 21.856 27.531 23.840  0.0000  0.0000  0.0000
 2002 357    70    66   2011 10.8769  0.2267  5.2735  2.6213  0.8144 0.51499  9.113 21.830 17.409 15.009  0.0000  0.0000  0.0000
 2002 358    71    67   2144 22.8851  0.3051 12.4838  4.7347  1.5545 1.59958  9.237 22.140 21.657 17.501  0.0000  0.0000  0.0000
 2002 359    72    68   2329 30.4678  0.4039 17.9701  5.5176  2.3745 2.48096  9.514 22.681 25.205 19.830  0.0000  0.0000  0.0000
 2002 360    73    69   2519 31.1858  0.0000 16.9268  4.9170  3.1743 3.42315 10.100 24.076 28.171 22.975  0.0000  0.0000  0.0000
 2002 361    74    70   2707 31.6506  0.0000 15.9575  4.5315  4.1188 4.30715 10.866 25.950 31.817 25.941  0.0000  0.0000  0.0000
 2002 362    75    71   2771 14.8314  0.8098  7.7553  2.9652  2.5410 0.75536 10.782 25.702 26.428 24.349  0.0000  0.0000  0.0000
 2002 363    76    72   2835 14.9403  0.8365  7.9355  2.8700  2.6869 0.74562 10.719 25.471 27.574 24.815  0.0000  0.0000  0.0000
 2002 364    77    73   2950 21.7642  0.7863 12.4074  3.9067  2.9210 1.53508 10.765 25.468 26.933 23.529  0.0000  0.0000  0.0000
 2002 365    78    74   3036 17.2697  0.4105  9.4893  3.1247  2.2848 0.97716 10.855 25.576 23.833 21.503  0.0000  0.0000  0.0000
 2003 001    79    75   3179 25.2824  0.0000 11.7828  3.7811  2.9438 4.18351 11.635 27.479 25.072 22.312  0.0000  0.0000  0.0000
 2003 002    80    76   3345 28.2210  0.0000 12.2202  3.8631  3.0816 6.14678 12.758 30.222 24.951 21.868  0.0000  0.0000  0.0000
 2003 003    81    77   3405 16.2425  0.9889  8.9629  3.3259  2.3937 0.50063 12.702 29.945 24.083 21.359  0.0000  0.0000  0.0000
 2003 004    82    78   3584 32.4246  0.0000 12.4023  3.8792  4.0929 8.76550 14.232 33.646 28.100 24.085  6.3771 20.5000 31.1430
 2003 005    83    79   3746 31.0692  0.0000 12.8650  4.0392  4.1400 6.92205 15.352 36.190 29.302 23.961  6.3689 20.5000 31.1944
 2003 006    84    80   3913 32.5251  0.0000 15.3425  4.9828  3.6395 5.17850 16.076 37.682 25.764 21.928  6.2851 20.3722 31.8462
 2003 007    85    81   4075 32.6725  0.0000 16.0413  5.3052  3.9282 3.98351 16.559 38.555 27.684 22.307  6.2651 20.3684 31.9745
 2003 008    86    82   4228 32.0276  0.0000 14.6901  5.0252  4.1469 4.75238 17.199 39.826 28.474 22.810  6.2681 20.3983 31.9260
 2003 009    87    83   4357 29.5686  0.8910 15.3890  5.3621  4.6499 1.69241 17.286 39.798 28.626 24.969  6.3323 20.4332 31.4898
 2003 010    88    84   4403 18.0762  2.2347 10.1352  3.8856  3.7174 0.00000 17.080 39.220 26.855 24.346  6.3516 20.4522 31.3504
 2003 011    89    85   4509 28.2957  2.1436 15.7660  5.7224  4.3516 1.02177 16.916 38.702 28.324 23.880  6.3533 20.4636 31.3281
 2003 012    90    86   4653 32.1745  1.9429 17.6492  6.4727  4.4288 1.56893 16.811 38.302 28.032 23.086  6.3401 20.4663 31.4084
 2003 013    91    87   4792 31.8038  1.9937 17.6660  6.7803  4.0310 1.36324 16.676 37.848 27.304 21.497  6.3149 20.4077 31.6244
 2003 014    92    88   4903 31.6075  2.2314 16.6958  6.9430  4.8180 0.95421 16.501 37.319 29.163 23.787  6.3211 20.4237 31.5694
 2003 015    93    89   4988 29.9068  2.3882 15.1211  6.8238  5.2511 0.44618 16.290 36.721 29.931 25.272  6.3491 20.4370 31.3809
 2003 016    94    90   5071 29.9935  2.4643 15.0617  6.8838  5.5788 0.28209 16.062 36.087 30.219 26.062  6.3837 20.4478 31.1542
 2003 017    95    91   5149 29.6079  2.4735 14.8017  6.7562  5.9674 0.19267 15.827 35.437 31.815 26.870  6.4214 20.4560 30.9100
 2003 018    96    92   5199 30.0020  2.1902 15.4290  7.3978  4.3547 0.00000 15.618 34.844 26.250 22.451  6.3936 20.4455 31.0947
 2003 019    97    93   5254 28.3281  2.1894 14.2402  6.9664  4.7833 0.00000 15.403 34.237 29.569 23.478  6.3819 20.4542 31.1587
 2003 020    98    94   5312 24.9153  2.2783 12.8393  6.1417  4.5113 0.00000 15.176 33.593 26.687 23.785  6.3765 20.4621 31.1846
 2003 021    99    95   5386 29.3240  2.2238 14.5712  7.0930  4.9099 0.00000 14.955 32.955 28.279 23.800  6.3728 20.4679 31.2024
 2003 022   100    96   5407 20.7763  2.3197 10.7585  5.0490  4.8566 0.00000 14.719 32.276 29.051 25.289  6.3884 20.4724 31.1000
 2003 023   101    97   5480 28.5073  2.0541 14.2641  7.4345  4.2627 0.00000 14.519 31.667 25.355 22.131  6.3666 20.4520 31.2569
 2003 024   102    98   5564 28.9313  1.8366 15.3918  7.3765  3.7223 0.00000 14.343 31.116 25.627 19.752  6.3442 20.3219 31.5268
 2003 025   103    99   5623 27.4211  2.0754 13.8752  7.0049  4.6935 0.00000 14.131 30.477 27.852 23.088  6.3380 20.3406 31.5471
 2003 026   104   100   5684 28.4320  1.9960 14.2325  7.3566  4.6421 0.00000 13.926 29.852 27.983 22.538  6.3285 20.3482 31.5989
 2003 027   105   101   5738 27.0111  1.9342 13.5836  7.0595  4.4789 0.00000 13.725 29.233 27.938 22.136  6.3178 20.3459 31.6679
 2003 028   106   102   5802 27.8317  1.9922 13.6240  7.2324  5.1560 0.00000 13.511 28.580 29.560 23.830  6.3218 20.3626 31.6262
 2003 029   107   103   5821 27.1200  2.0410 13.0987  7.0086  5.5943 0.00000 13.288 27.896 30.077 25.171  6.3374 20.3768 31.5142
 2003 030   108   104   5875 28.0262  2.0373 12.9883  7.1693  6.5765 0.00275 13.054 27.188 32.949 27.220  6.3685 20.3889 31.3078
 2003 031   109   105   5921 26.7192  2.0020 12.2037  6.6920  6.9347 0.04426 12.811 26.478 33.943 28.214  6.4024 20.3989 31.0863
 2003 032   110   106   5951 22.2561  1.7405 10.5786  5.7398  5.8092 0.06830 12.637 25.884 30.544 26.606  6.4396 20.3652 30.8873
 2003 033   111   107   5992 25.2649  1.5372 11.2524  6.4944  6.6934 0.10892 12.500 25.374 33.602 27.803  6.4845 20.3291 30.6425
 2003 034   112   108   5995 15.1449  1.7461  7.7225  3.3822  5.1229 0.02765 12.298 24.718 30.379 26.048  6.4953 20.3234 30.5810
 2003 035   113   109   5988 14.1301  1.7443  7.4482  3.1156  4.7867 0.00694 12.078 24.029 29.245 25.344  6.4967 20.3286 30.5672
 2003 036   114   110   5995 11.5413  1.5857  6.6401  2.4434  3.6268 0.00000 11.869 23.379 24.113 22.396  6.4862 20.3308 30.6307
 2003 037   115   111   6051 22.0623  1.6305 10.4132  5.2395  5.8383 0.01566 11.646 22.700 31.134 26.483  6.4960 20.3341 30.5658
 2003 038   116   112   6083 15.3975  1.5748  7.8770  3.4053  4.5339 0.00692 11.416 22.020 26.892 24.388  6.4934 20.3385 30.5780
 2003 039   117   113   6127 18.4264  1.5198  8.8263  4.5523  5.1510 0.01922 11.186 21.353 28.701 25.481  6.4976 20.3381 30.5519
 2003 040   118   114   6160 16.8423  1.4031  7.8233  4.0394  5.1471 0.04690 10.977 20.741 28.827 25.930  6.5084 20.3259 30.4963
 2003 041   119   115   6191 15.6982  1.3764  7.4221  3.6638  4.7305 0.03397 10.752 20.115 27.938 25.077  6.5132 20.3193 30.4734
 2003 042   120   116   6202 11.2744  1.3315  5.6997  2.4088  3.8685 0.01613 10.516 19.483 25.611 23.430  6.5107 20.3181 30.4897
 2003 043   121   117   6254 19.3213  1.2368  8.8691  4.7330  4.6393 0.04211 10.296 18.899 27.201 24.270  6.5132 20.3105 30.4817
 2003 044   122   118   6307 18.9126  1.1638  8.6455  4.6383  4.3918 0.04350 10.079 18.339 27.487 23.555  6.5135 20.3028 30.4881
 2003 045   123   119   6357 18.2987  1.1781  8.3111  4.8237  4.4382 0.02818  9.840 17.748 28.331 23.793  6.5122 20.3005 30.4983
 2003 046   124   120   6396 16.0971  1.1504  7.1152  4.1157  4.5455 0.02825  9.594 17.158 29.744 24.528  6.5138 20.2973 30.4917
 2003 047   125   121   6436 12.7467  0.9764  6.4709  3.6679  2.4342 0.01270  9.373 16.639 20.941 17.905  6.5082 20.2329 30.5908
 2003 048   126   122   6491 16.5453  1.0260  8.2104  3.8314  3.0472 0.00000  9.126 16.075 25.007 19.257  6.4368 20.3200 30.9501
 2003 049   127   123   6371 15.8726  1.0240  7.6152  3.5248  3.4581 0.00000  8.764 15.004 27.035 20.893  6.3715 20.4281 31.2500
 2003 050   128   124   6237  5.8817  0.7746  3.1476  1.5211  1.8275 0.00000  8.453 14.115 19.488 16.596  6.3708 20.3843 31.2980
 2003 051   129   125   6146  7.4277  0.6787  3.7279  1.8941  1.8641 0.00000  8.149 13.319 20.213 16.680  6.3650 20.3452 31.3737
 2003 052   130   126   6070  6.1918  0.5954  3.0410  1.4526  1.8312 0.00000  7.854 12.607 22.174 16.429  6.3646 20.3028 31.4186
 2003 053   131   127   5989  3.3967  0.5626  1.5883  0.5322  1.8765 0.00000  7.551 11.942 21.269 18.130  6.3637 20.2906 31.4362
 2003 054   132   128   5894  1.6088  0.5031  0.3394  0.0974  1.7014 0.00000  7.240 11.340 19.850 17.853  6.3635 20.2877 31.4401
 2003 055   133   129   5834  2.8251  0.5279  0.6001  0.1721  2.6005 0.00000  6.899 10.730 25.621 22.625  6.3633 20.2880 31.4412
 2003 056   134   130   5791  2.8908  0.4792  0.5249  0.1506  2.7120 0.00000  6.575 10.174 28.431 22.905  6.3632 20.2883 31.4419
 2003 057   135   131   5751  2.1009  0.4704  0.0000  0.0000  3.3342 0.00000  6.233  9.632 31.406 26.310  6.3632 20.2883 31.4419
 2003 058   136   132   5711  1.6396  0.4437  0.0000  0.0000  3.4908 0.00000  5.901  9.122 31.998 27.366  6.3632 20.2883 31.4419
 2003 059   137   133   5683  0.8188  0.3930  0.0000  0.0000  2.5985 0.00000  5.600  8.667 26.249 23.827  6.3632 20.2883 31.4419
 2003 060   138   134   5659  0.6349  0.3552  0.0000  0.0000  2.3290 0.00000  5.323  8.255 24.271 22.597  6.3632 20.2883 31.4419

*DSSAT Cropping System Model Ver. 4.6.1.000 -release      OCT 17, 2016; 12:01:09
                                                                                
*RUN   4        : UYSB                      CRGRO046 UYSB0876    1              
 MODEL          : CRGRO046 - Soybean                                            
 EXPERIMENT     : UYSB0876 SN late to create DSS                                
 DATA PATH      :                                                               
 TREATMENT  1   : UYSB                      CRGRO046                            
  
@YEAR DOY   DAS   DAP   TWAD    PHAD    CMAD    CGRD    GRAD    MRAD    CHAD   CL%D   CS%D   TGNN   TGAV    GN%D    GL%D    GC%D
 2003 291     4     0      0  0.0000  0.0000  0.0000  0.0000  0.0000 0.00000  0.000  0.000 30.790 25.833  0.0000  0.0000  0.0000
 2003 292     5     1      0  0.0000  0.0000  0.0000  0.0000  0.0000 0.00000  0.000  0.000 22.463 19.074  0.0000  0.0000  0.0000
 2003 293     6     2      0  0.0000  0.0000  0.0000  0.0000  0.0000 0.00000  0.000  0.000 19.678 16.074  0.0000  0.0000  0.0000
 2003 294     7     3      0  0.0000  0.0000  0.0000  0.0000  0.0000 0.00000  0.000  0.000 21.773 17.669  0.0000  0.0000  0.0000
 2003 295     8     4      0  0.0000  0.0000  0.0000  0.0000  0.0000 0.00000  0.000  0.000 21.940 16.550  0.0000  0.0000  0.0000
 2003 296     9     5      8  0.0000  0.0005  0.0003  0.0001  0.0000 0.00000  3.947  7.890 24.784 18.999  0.0000  0.0000  0.0000
 2003 297    10     6      9  0.1732  0.0006  0.1066  0.0368  0.0153 0.00000  3.891  7.785 29.443 23.301  0.0000  0.0000  0.0000
 2003 298    11     7      9  0.1267  0.0006  0.0791  0.0265  0.0111 0.00000  3.836  7.688 24.056 22.020  0.0000  0.0000  0.0000
 2003 299    12     8     11  0.2127  0.0006  0.1365  0.0432  0.0143 0.00000  3.797  7.641 24.246 20.245  0.0000  0.0000  0.0000
 2003 300    13     9     12  0.1794  0.0004  0.1169  0.0388  0.0079 0.00000  3.781  7.625 18.975 14.544  0.0000  0.0000  0.0000
 2003 301    14    10     13  0.2294  0.0005  0.1498  0.0475  0.0118 0.00000  3.760  7.608 21.629 16.340  0.0000  0.0000  0.0000
 2003 302    15    11     15  0.2891  0.0007  0.1880  0.0580  0.0176 0.00000  3.732  7.585 24.119 18.543  0.0000  0.0000  0.0000
 2003 303    16    12     17  0.3266  0.0011  0.2061  0.0638  0.0296 0.00000  3.690  7.531 29.056 23.550  0.0000  0.0000  0.0000
 2003 304    17    13     18  0.1342  0.0007  0.0861  0.0282  0.0089 0.00000  3.667  7.487 18.680 15.676  0.0000  0.0000  0.0000
 2003 305    18    14     19  0.2141  0.0005  0.1409  0.0446  0.0092 0.00000  3.660  7.483 17.079 13.324  0.0000  0.0000  0.0000
 2003 306    19    15     21  0.2166  0.0005  0.1437  0.0438  0.0091 0.00000  3.653  7.485 17.762 12.218  0.0000  0.0000  0.0000
 2003 307    20    16     22  0.2477  0.0006  0.1644  0.0491  0.0112 0.00000  3.643  7.484 18.868 13.073  0.0000  0.0000  0.0000
 2003 308    21    17     24  0.2986  0.0009  0.1964  0.0584  0.0165 0.00000  3.625  7.469 20.549 15.933  0.0000  0.0000  0.0000
 2003 309    22    18     26  0.3832  0.0012  0.2351  0.0891  0.0238 0.00000  3.640  7.424 22.668 17.837  0.0000  0.0000  0.0000
 2003 310    23    19     29  0.4720  0.0016  0.2913  0.1047  0.0340 0.00000  3.638  7.384 24.731 20.043  0.0000  0.0000  0.0000
 2003 311    24    20     32  0.5507  0.0019  0.3404  0.1208  0.0432 0.00000  3.628  7.351 25.951 21.298  0.0000  0.0000  0.0000
 2003 312    25    21     36  0.5746  0.0022  0.3539  0.1244  0.0503 0.00000  3.609  7.319 27.600 22.303  0.0000  0.0000  0.0000
 2003 313    26    22     39  0.5689  0.0027  0.3455  0.1220  0.0569 0.00000  3.582  7.274 27.959 23.806  0.0000  0.0000  0.0000
 2003 314    27    23     44  0.8590  0.0027  0.5229  0.1937  0.0726 0.00000  3.587  7.271 28.213 22.664  0.0000  0.0000  0.0000
 2003 315    28    24     50  0.9459  0.0033  0.5900  0.1905  0.0974 0.00000  3.612  7.261 31.366 25.171  0.0000  0.0000  0.0000
 2003 316    29    25     53  0.5303  0.0023  0.3313  0.1176  0.0345 0.00000  3.599  7.247 19.316 17.060  0.0000  0.0000  0.0000
 2003 317    30    26     58  0.8010  0.0020  0.5065  0.1793  0.0387 0.00000  3.603  7.274 18.352 15.415  0.0000  0.0000  0.0000
 2003 318    31    27     64  1.0249  0.0022  0.6609  0.2174  0.0497 0.00000  3.604  7.322 20.675 15.482  0.0000  0.0000  0.0000
 2003 319    32    28     73  1.4153  0.0040  0.8972  0.2967  0.1030 0.00000  3.637  7.332 26.849 20.545  0.0000  0.0000  0.0000
 2003 320    33    29     76  0.6836  0.0043  0.3963  0.1557  0.0603 0.00000  3.603  7.277 21.316 19.812  0.0000  0.0000  0.0000
 2003 321    34    30     84  1.2545  0.0051  0.8563  0.2304  0.1032 0.00000  3.617  7.271 25.172 21.482  0.0000  0.0000  0.0000
 2003 322    35    31     89  0.7663  0.0034  0.4949  0.1625  0.0465 0.00000  3.625  7.252 17.422 15.667  0.0000  0.0000  0.0000
 2003 323    36    32    101  2.0406  0.0052  1.1870  0.4501  0.1314 0.00000  3.589  7.301 23.886 19.694  0.0000  0.0000  0.0000
 2003 324    37    33    111  1.7002  0.0042  1.0584  0.3712  0.0821 0.00000  3.589  7.328 18.961 15.736  0.0000  0.0000  0.0000
 2003 325    38    34    126  2.3778  0.0057  1.4934  0.5005  0.1370 0.00000  3.592  7.360 23.516 17.818  0.0000  0.0000  0.0000
 2003 326    39    35    142  2.7950  0.0099  1.6932  0.5609  0.2709 0.00000  3.575  7.349 30.701 24.430  0.0000  0.0000  0.0000
 2003 327    40    36    159  3.0134  0.0125  1.8162  0.5998  0.3416 0.00000  3.554  7.324 32.061 26.722  0.0000  0.0000  0.0000
 2003 328    41    37    166  1.2206  0.0081  0.7549  0.2573  0.0959 0.00000  3.533  7.283 18.854 17.420  0.0000  0.0000  0.0000
 2003 329    42    38    187  3.5895  0.0110  2.1786  0.8080  0.2570 0.00000  3.561  7.275 25.665 20.576  0.0000  0.0000  0.0000
 2003 330    43    39    204  3.1901  0.0153  1.9511  0.6743  0.3116 0.00000  3.590  7.222 27.935 23.814  0.0000  0.0000  0.0000
 2003 331    44    40    233  5.0591  0.0162  2.9391  1.1433  0.4280 0.00000  3.595  7.216 27.597 23.368  0.0000  0.0000  0.0000
 2003 332    45    41    257  4.1623  0.0163  2.5006  0.9189  0.3289 0.00000  3.591  7.196 25.765 21.177  0.0000  0.0000  0.0000
 2003 333    46    42    298  6.9092  0.0185  4.1859  1.5218  0.5112 0.00000  3.608  7.220 27.056 21.644  0.0000  0.0000  0.0000
 2003 334    47    43    321  4.0048  0.0185  2.4345  0.9107  0.2924 0.00189  3.601  7.207 21.430 19.387  0.0000  0.0000  0.0000
 2003 335    48    44    372  8.6109  0.0229  5.2134  1.9439  0.5988 0.03183  3.681  7.441 24.764 21.216  0.0000  0.0000  0.0000
 2003 336    49    45    424  8.7186  0.0241  5.2866  1.9873  0.5539 0.05754  3.785  7.753 24.016 19.535  0.0000  0.0000  0.0000
 2003 337    50    46    486 10.3641  0.0336  6.1599  2.3491  0.7956 0.10046  3.918  8.164 27.049 21.851  0.0000  0.0000  0.0000
 2003 338    51    47    535  8.6415  0.0420  5.2198  1.9019  0.7477 0.11534  4.044  8.518 26.335 22.428  0.0000  0.0000  0.0000
 2003 339    52    48    617 13.7332  0.0377  7.9941  3.2075  0.8180 0.21476  4.244  9.135 23.256 19.134  0.0000  0.0000  0.0000
 2003 340    53    49    703 14.2725  0.0396  8.4109  3.2856  0.7792 0.26107  4.437  9.722 23.228 17.421  0.0000  0.0000  0.0000
 2003 341    54    50    782 13.5528  0.0609  7.7779  3.1445  0.9800 0.28201  4.589 10.197 25.252 20.305  0.0000  0.0000  0.0000
 2003 342    55    51    841 10.2583  0.0610  5.8350  2.4372  0.7161 0.23864  4.690 10.523 22.502 18.487  0.0000  0.0000  0.0000
 2003 343    56    52    932 15.1632  0.0572  8.8308  3.5538  0.8009 0.39666  4.875 11.069 20.643 16.736  0.0000  0.0000  0.0000
 2003 344    57    53   1048 19.8747  0.0814 11.3604  4.6609  1.2852 0.56471  5.106 11.711 25.323 18.944  0.0000  0.0000  0.0000
 2003 345    58    54   1145 17.0301  0.1005  9.5707  3.9252  1.2217 0.52436  5.278 12.182 24.798 19.423  0.0000  0.0000  0.0000
 2003 346    59    55   1251 18.3149  0.0910 10.3894  4.2357  1.0527 0.61277  5.466 12.691 22.007 16.918  0.0000  0.0000  0.0000
 2003 347    60    56   1357 18.7675  0.1287 10.4215  4.3799  1.3373 0.66852  5.634 13.145 23.174 19.340  0.0000  0.0000  0.0000
 2003 348    61    57   1491 24.0925  0.1722 13.1968  5.5497  1.9790 0.92650  5.844 13.706 25.928 21.700  0.0000  0.0000  0.0000
 2003 349    62    58   1555 12.7057  0.1674  7.5659  2.5935  1.1640 0.58029  5.983 13.985 22.775 19.479  0.0000  0.0000  0.0000
 2003 350    63    59   1670 20.1463  0.1302 10.8815  4.7430  1.1233 0.87380  6.130 14.443 19.816 16.090  0.0000  0.0000  0.0000
 2003 351    64    60   1809 24.1972  0.1627 13.3122  5.4293  1.4802 1.12642  6.324 14.978 22.238 17.222  0.0000  0.0000  0.0000
 2003 352    65    61   1977 29.2347  0.2166 17.0163  6.2391  2.0536 1.52238  6.612 15.639 24.712 19.087  0.0000  0.0000  0.0000
 2003 353    66    62   2120 25.3973  0.3222 14.3648  5.1637  2.5844 1.36177  6.788 16.066 27.485 22.863  0.0000  0.0000  0.0000
 2003 354    67    63   2215 17.5772  0.3280  9.5274  3.7494  1.9169 0.92232  6.848 16.252 24.190 21.467  0.0000  0.0000  0.0000
 2003 355    68    64   2415 31.7046  0.0000 14.9943  3.7177  3.3522 7.02759  8.664 21.169 28.305 24.005  0.0000  0.0000  0.0000
 2003 356    69    65   2532 20.4647  0.3745 11.7596  4.0569  1.7040 1.22317  8.713 21.213 22.224 18.247  0.0000  0.0000  0.0000
 2003 357    70    66   2702 28.4904  0.3672 16.6054  5.5982  1.9636 1.81355  8.820 21.397 22.232 17.466  0.0000  0.0000  0.0000
 2003 358    71    67   2884 29.1492  0.4722 17.9912  5.3150  2.4333 2.03592  8.934 21.587 24.085 19.463  0.0000  0.0000  0.0000
 2003 359    72    68   3109 36.1042  0.0000 18.7098  5.0240  3.8584 5.44895  9.859 23.942 27.851 23.408  0.0000  0.0000  0.0000
 2003 360    73    69   3313 34.2279  0.0000 19.1576  5.3574  3.7468 3.05678 10.211 24.697 27.790 22.917  0.0000  0.0000  0.0000
 2003 361    74    70   3389 17.2626  0.8283  9.8493  3.0767  2.6678 1.05167 10.182 24.518 25.555 22.474  0.0000  0.0000  0.0000
 2003 362    75    71   3528 25.3050  0.6613 14.3691  4.8313  2.3946 1.70253 10.214 24.508 21.741 19.161  0.0000  0.0000  0.0000
 2003 363    76    72   3719 30.4686  0.0000 16.3766  4.5537  2.3004 3.99799 10.719 25.742 22.108 17.019  0.0000  0.0000  0.0000
 2003 364    77    73   3941 36.5661  0.0000 20.0629  5.8521  3.4328 3.74129 11.090 26.560 26.120 19.992  0.0000  0.0000  0.0000
 2003 365    78    74   4137 32.2792  0.0000 17.3891  5.1701  2.7469 3.78204 11.491 27.479 21.686 18.425  0.0000  0.0000  0.0000
 2004 001    79    75   4354 35.9268  0.8292 21.1244  6.6350  3.1340 2.92207 11.534 27.489 24.903 18.201  0.0000  0.0000  0.0000
 2004 002    80    76   4588 38.4870  0.0000 20.8327  6.1132  3.5131 4.26381 11.905 28.311 25.128 19.035  0.0000  0.0000  0.0000
 2004 003    81    77   4810 40.0196  1.2330 22.4239  7.3527  4.5851 3.15506 11.921 28.242 27.646 21.875  0.0000  0.0000  0.0000
 2004 004    82    78   4983 34.8306  1.4476 18.5979  6.3410  5.0946 2.60374 11.907 28.105 29.025 24.007  0.0000  0.0000  0.0000
 2004 005    83    79   5156 36.5220  1.6552 19.0291  6.4296  6.2453 2.73825 11.890 27.959 30.851 26.442  0.0000  0.0000  0.0000
 2004 006    84    80   5339 38.7249  1.6445 20.1907  6.8525  6.4939 2.95149 11.890 27.865 31.646 26.162  0.0000  0.0000  0.0000
 2004 007    85    81   5476 32.5212  1.7633 16.7453  5.8182  5.9942 2.02846 11.851 27.671 30.919 25.900  6.5376 20.5000 30.1400
 2004 008    86    82   5643 39.8082  1.8467 20.5652  7.1826  6.3689 2.80741 11.848 27.566 29.420 25.477  6.5131 20.5000 30.2933
 2004 009    87    83   5799 38.2379  1.9573 19.7970  6.8718  6.5089 2.58539 11.834 27.433 29.658 25.823  6.5248 20.5000 30.2199
 2004 010    88    84   5920 35.8721  2.0279 17.6340  7.1287  6.3646 1.81693 11.784 27.214 29.470 25.670  6.5209 20.5000 30.2444
 2004 011    89    85   6071 39.4443  1.9355 21.0268  7.8234  5.6822 2.03413 11.762 27.059 25.981 23.544  6.4359 20.4996 30.7759
 2004 012    90    86   6172 32.2874  1.9205 16.6530  6.7843  5.0636 1.00889 11.688 26.784 26.068 22.807  6.3721 20.4788 31.1958
 2004 013    91    87   6306 36.0283  1.9154 18.1451  7.7691  5.2114 1.30715 11.634 26.560 26.249 22.414  6.3304 20.4472 31.4879
 2004 014    92    88   6444 39.7157  2.0409 19.7554  8.4493  5.9153 1.70697 11.596 26.376 27.584 23.319  6.3251 20.4592 31.5091
 2004 015    93    89   6557 34.7511  1.9083 17.9551  7.5931  4.8565 0.86302 11.522 26.105 25.231 21.360  6.2938 20.3708 31.7929
 2004 016    94    90   6695 38.9482  1.8280 20.0973  8.6369  4.7715 1.35795 11.486 25.932 25.146 20.272  6.2678 20.2067 32.1198
 2004 017    95    91   6736 24.9987  1.9579 13.6340  5.2770  4.8248 0.03806 11.360 25.533 26.779 22.264  6.2616 20.2387 32.1262
 2004 018    96    92   6793 23.9509  2.1599 12.7969  5.2299  4.9778 0.00000 11.208 25.071 26.110 22.992  6.2669 20.2887 32.0434
 2004 019    97    93   6861 25.7021  1.9584 13.6644  5.9044  4.3257 0.00000 11.074 24.652 22.887 21.024  6.2520 20.2293 32.1954
 2004 020    98    94   6923 29.0089  2.1780 15.2076  6.4588  5.4894 0.00000 10.919 24.178 27.044 23.246  6.2610 20.2732 32.0955
 2004 021    99    95   7027 36.6928  2.2262 18.6841  8.3621  6.3109 0.05041 10.761 23.697 27.668 23.942  6.2783 20.3111 31.9496
 2004 022   100    96   7123 36.0585  2.2736 18.2588  8.1989  6.6903 0.00000 10.592 23.191 28.524 24.690  6.3022 20.3407 31.7709
 2004 023   101    97   7196 34.4833  2.2342 17.2691  7.8931  6.3615 0.00000 10.425 22.690 27.717 24.134  6.3142 20.3650 31.6710
 2004 024   102    98   7276 35.9476  2.2173 17.7199  8.4259  6.7227 0.00000 10.257 22.187 28.823 24.488  6.3291 20.3853 31.5579
 2004 025   103    99   7366 36.6591  2.0689 18.1215  8.8673  6.0753 0.00000 10.101 21.713 27.841 22.790  6.3206 20.3940 31.6022
 2004 026   104   100   7454 36.9501  2.0259 18.5504  8.7326  6.3885 0.00000  9.948 21.245 29.479 22.996  6.3159 20.4040 31.6216
 2004 027   105   101   7539 36.9292  2.0107 18.1903  9.0541  6.1820 0.00000  9.794 20.774 28.366 22.635  6.3084 20.4065 31.6659
 2004 028   106   102   7576 26.1383  2.0921 13.2813  6.2836  5.8986 0.00000  9.630 20.278 28.006 23.673  6.3129 20.4194 31.6253
 2004 029   107   103   7610 36.2284  2.1655 16.8892  8.6426  7.9240 0.00000  9.460 19.756 31.235 26.222  6.3445 20.4295 31.4175
 2004 030   108   104   7680 35.5780  2.1022 16.4488  8.3840  8.6213 0.04324  9.289 19.244 33.552 27.321  6.3827 20.4379 31.1701
 2004 031   109   105   7701 26.2594  2.1328 12.2980  6.0899  7.9420 0.00000  9.114 18.707 32.639 27.662  6.4191 20.4452 30.9353
 2004 032   110   106   7763 32.5742  2.0341 15.5854  8.1541  7.2550 0.00000  8.950 18.185 28.884 25.555  6.4298 20.4519 30.8619
 2004 033   111   107   7820 31.0098  1.8741 15.2579  7.7864  6.2688 0.00000  8.799 17.695 27.468 23.602  6.4188 20.4574 30.9252
 2004 034   112   108   7811 15.1820  1.6836  9.0455  3.1824  4.3637 0.00247  8.665 17.247 22.473 21.399  6.4047 20.4330 31.0374
 2004 035   113   109   7873 28.9835  1.6291 14.2089  7.0188  6.7537 0.06362  8.549 16.828 28.745 24.844  6.4246 20.4062 30.9399
 2004 036   114   110   7956 32.4279  1.3781 15.7829  8.3577  6.1636 0.10687  8.469 16.491 26.055 23.193  6.4371 20.3634 30.9047
 2004 037   115   111   8045 32.1037  1.2441 15.8229  8.8319  5.4072 0.10510  8.397 16.184 25.435 21.285  6.4379 20.2930 30.9703
 2004 038   116   112   8118 29.7244  1.1796 14.5382  7.9967  5.3534 0.11746  8.330 15.894 25.857 21.278  6.4425 20.2300 31.0045
 2004 039   117   113   8197 30.8213  1.2628 14.8585  8.2849  5.8255 0.09839  8.242 15.563 26.539 22.175  6.4453 20.2012 31.0156
 2004 040   118   114   8275 28.6558  1.2127 13.6049  7.5057  5.8958 0.10695  8.156 15.242 27.330 22.466  6.4514 20.1759 31.0027
 2004 041   119   115   8354 28.7494  1.2606 13.3728  7.4635  6.3657 0.09910  8.053 14.896 28.226 23.613  6.4606 20.1618 30.9596
 2004 042   120   116   8430 28.0802  1.2110 12.9266  7.2902  6.2641 0.10259  7.950 14.559 28.474 23.505  6.4690 20.1475 30.9212
 2004 043   121   117   8490 25.9085  1.2935 11.3869  6.3129  7.2748 0.09163  7.825 14.182 31.109 25.997  6.4856 20.1357 30.8295
 2004 044   122   118   8488 11.7883  1.4236  6.4421  2.2990  4.3334 0.00000  7.647 13.713 22.916 21.737  6.4790 20.1378 30.8684
 2004 045   123   119   8541 19.4229  1.1547  9.6567  5.1238  4.1700 0.04759  7.512 13.347 23.755 20.003  6.4749 20.1021 30.9298
 2004 046   124   120   8619 24.7395  0.9174 11.6634  6.8720  4.2913 0.10356  7.420 13.082 25.023 19.271  6.4765 20.0319 30.9898
 2004 047   125   121   8679 22.0446  1.1276 10.2568  5.7857  4.9025 0.05868  7.277 12.718 26.848 21.419  6.4744 20.0199 31.0149
 2004 048   126   122   8729 19.0457  1.0522  8.8701  4.9185  4.4563 0.07013  7.142 12.379 24.824 21.039  6.4748 20.0012 31.0314
 2004 049   127   123   8778 17.6633  1.0180  8.5491  4.8634  3.6733 0.04738  6.999 12.037 23.336 18.872  6.4727 19.9565 31.0889
 2004 050   128   124   8836 20.0750  0.8849  9.1498  5.5115  4.0616 0.09158  6.883 11.759 24.229 19.767  6.4750 19.9180 31.1134
 2004 051   129   125   8886 16.0874  0.8227  7.8402  4.8234  2.8493 0.06680  6.766 11.488 21.282 16.250  6.4794 19.8188 31.1847
 2004 052   130   126   8953 17.0031  0.0000  7.8722  2.8204  3.2528 0.94568  6.951 11.923 22.660 17.593  6.4053 19.9125 31.5547
 2004 053   131   127   8725 15.3206  0.0363  7.3924  2.5806  3.2388 0.33182  7.021 11.572 23.047 17.731  6.3405 19.9951 31.8770
 2004 054   132   128   8548 14.7973  0.0070  6.6051  2.2865  3.7758 0.32890  7.101 11.325 24.812 20.140  6.2848 20.0958 32.1245
 2004 055   133   129   8389 10.9127  1.0026  4.8987  2.1590  3.7694 0.00000  6.798 10.523 25.209 21.251  6.2646 20.1345 32.2117
 2004 056   134   130   8260  9.0918  0.8848  3.8681  1.3701  3.8108 0.00000  6.498  9.807 26.860 21.869  6.2408 20.1840 32.3112
 2004 057   135   131   8141  6.7567  0.7787  2.4601  0.9639  3.8181 0.00000  6.208  9.169 28.615 22.378  6.2405 20.1860 32.3111
 2004 058   136   132   8037  5.0179  0.6989  1.4366  0.4121  3.9171 0.00000  5.925  8.596 30.182 23.199  6.2407 20.1872 32.3085
 2004 059   137   133   7950  3.5410  0.6157  0.8301  0.2381  3.1180 0.00000  5.653  8.089 25.645 21.371  6.2406 20.1870 32.3092
 2004 060   138   134   7876  2.7187  0.5498  0.3127  0.0897  2.8782 0.00000  5.391  7.637 24.901 20.770  6.2406 20.1867 32.3098
 2004 061   139   135   7813  2.4022  0.5127  0.0000  0.0000  2.9790 0.00000  5.132  7.221 25.838 21.353  6.2406 20.1867 32.3098
 2004 062   140   136   7754  1.2706  0.4537  0.0000  0.0000  2.5217 0.00000  4.896  6.854 23.368 19.881  6.2406 20.1867 32.3098
 2004 063   141   137   7709  1.6045  0.4163  0.0000  0.0000  2.4956 0.00000  4.673  6.520 24.815 19.408  6.2406 20.1867 32.3098
 2004 064   142   138   7672  1.2845  0.3895  0.0000  0.0000  2.5544 0.00000  4.460  6.212 26.155 19.504  6.2406 20.1867 32.3098

*DSSAT Cropping System Model Ver. 4.6.1.000 -release      OCT 17, 2016; 12:01:09
                                                                                
*RUN   5        : UYSB                      CRGRO046 UYSB0876    1              
 MODEL          : CRGRO046 - Soybean                                            
 EXPERIMENT     : UYSB0876 SN late to create DSS                                
 DATA PATH      :                                                               
 TREATMENT  1   : UYSB                      CRGRO046                            
  
@YEAR DOY   DAS   DAP   TWAD    PHAD    CMAD    CGRD    GRAD    MRAD    CHAD   CL%D   CS%D   TGNN   TGAV    GN%D    GL%D    GC%D
 2004 291     4     0      0  0.0000  0.0000  0.0000  0.0000  0.0000 0.00000  0.000  0.000 23.060 18.031  0.0000  0.0000  0.0000
 2004 292     5     1      0  0.0000  0.0000  0.0000  0.0000  0.0000 0.00000  0.000  0.000 20.452 16.563  0.0000  0.0000  0.0000
 2004 293     6     2      0  0.0000  0.0000  0.0000  0.0000  0.0000 0.00000  0.000  0.000 18.950 14.098  0.0000  0.0000  0.0000
 2004 294     7     3      0  0.0000  0.0000  0.0000  0.0000  0.0000 0.00000  0.000  0.000 18.487 12.991  0.0000  0.0000  0.0000
 2004 295     8     4      0  0.0000  0.0000  0.0000  0.0000  0.0000 0.00000  0.000  0.000 22.041 15.936  0.0000  0.0000  0.0000
 2004 296     9     5      0  0.0000  0.0000  0.0000  0.0000  0.0000 0.00000  0.000  0.000 26.154 20.298  0.0000  0.0000  0.0000
 2004 297    10     6      0  0.0000  0.0000  0.0000  0.0000  0.0000 0.00000  0.000  0.000 18.593 16.415  0.0000  0.0000  0.0000
 2004 298    11     7      8  0.0000  0.0003  0.0002  0.0001  0.0000 0.00000  3.966  7.929 18.037 14.751  0.0000  0.0000  0.0000
 2004 299    12     8      8  0.1325  0.0003  0.0845  0.0294  0.0064 0.00000  3.934  7.867 20.195 15.587  0.0000  0.0000  0.0000
 2004 300    13     9      9  0.1368  0.0004  0.0874  0.0294  0.0077 0.00000  3.899  7.803 21.487 16.841  0.0000  0.0000  0.0000
 2004 301    14    10     10  0.1112  0.0002  0.0719  0.0245  0.0040 0.00000  3.886  7.780 16.656 11.188  0.0000  0.0000  0.0000
 2004 302    15    11     11  0.1890  0.0004  0.1228  0.0390  0.0095 0.00000  3.860  7.744 22.688 15.324  0.0000  0.0000  0.0000
 2004 303    16    12     13  0.2342  0.0007  0.1487  0.0469  0.0176 0.00000  3.818  7.680 27.304 20.690  0.0000  0.0000  0.0000
 2004 304    17    13     13  0.1032  0.0006  0.0651  0.0217  0.0080 0.00000  3.781  7.612 19.374 17.586  0.0000  0.0000  0.0000
 2004 305    18    14     15  0.2417  0.0007  0.1567  0.0481  0.0155 0.00000  3.747  7.576 22.821 18.923  0.0000  0.0000  0.0000
 2004 306    19    15     17  0.3210  0.0009  0.2084  0.0626  0.0211 0.00000  3.715  7.553 24.849 19.519  0.0000  0.0000  0.0000
 2004 307    20    16     19  0.3430  0.0010  0.2277  0.0639  0.0256 0.00000  3.700  7.525 27.393 20.417  0.0000  0.0000  0.0000
 2004 308    21    17     20  0.1507  0.0011  0.0913  0.0306  0.0139 0.00000  3.656  7.454 21.525 19.342  0.0000  0.0000  0.0000
 2004 309    22    18     21  0.1576  0.0011  0.1015  0.0295  0.0143 0.00000  3.619  7.391 21.399 19.144  0.0000  0.0000  0.0000
 2004 310    23    19     21  0.1278  0.0006  0.0724  0.0333  0.0078 0.00000  3.621  7.350 17.002 13.495  0.0000  0.0000  0.0000
 2004 311    24    20     23  0.2341  0.0005  0.1429  0.0576  0.0093 0.00000  3.645  7.337 16.593 12.048  0.0000  0.0000  0.0000
 2004 312    25    21     24  0.3156  0.0007  0.1972  0.0720  0.0138 0.00000  3.659  7.337 19.073 13.453  0.0000  0.0000  0.0000
 2004 313    26    22     27  0.3908  0.0012  0.2666  0.0777  0.0244 0.00000  3.683  7.323 23.034 17.808  0.0000  0.0000  0.0000
 2004 314    27    23     28  0.2198  0.0013  0.1234  0.0519  0.0174 0.00000  3.651  7.269 19.034 17.853  0.0000  0.0000  0.0000
 2004 315    28    24     30  0.2579  0.0014  0.1572  0.0548  0.0202 0.00000  3.625  7.230 21.074 18.210  0.0000  0.0000  0.0000
 2004 316    29    25     32  0.3803  0.0012  0.2392  0.0816  0.0213 0.00000  3.617  7.234 18.342 16.408  0.0000  0.0000  0.0000
 2004 317    30    26     35  0.4597  0.0013  0.2891  0.0981  0.0249 0.00000  3.615  7.245 19.136 16.414  0.0000  0.0000  0.0000
 2004 318    31    27     38  0.5207  0.0014  0.3240  0.1150  0.0264 0.00000  3.624  7.255 19.578 15.674  0.0000  0.0000  0.0000
 2004 319    32    28     41  0.5734  0.0018  0.3590  0.1202  0.0348 0.00000  3.616  7.264 21.554 17.578  0.0000  0.0000  0.0000
 2004 320    33    29     47  0.9665  0.0025  0.6271  0.1917  0.0663 0.00000  3.638  7.309 24.341 20.580  0.0000  0.0000  0.0000
 2004 321    34    30     53  0.8975  0.0028  0.5563  0.1836  0.0608 0.00000  3.614  7.327 22.560 19.874  0.0000  0.0000  0.0000
 2004 322    35    31     60  1.1115  0.0026  0.7100  0.2252  0.0611 0.00000  3.609  7.370 21.927 17.592  0.0000  0.0000  0.0000
 2004 323    36    32     66  1.1092  0.0026  0.7059  0.2312  0.0560 0.00000  3.612  7.392 20.558 16.294  0.0000  0.0000  0.0000
 2004 324    37    33     73  1.0059  0.0025  0.6297  0.2214  0.0483 0.00000  3.624  7.391 19.289 15.097  0.0000  0.0000  0.0000
 2004 325    38    34     80  1.1610  0.0030  0.7329  0.2538  0.0581 0.00000  3.629  7.397 20.155 15.605  0.0000  0.0000  0.0000
 2004 326    39    35     89  1.5616  0.0038  0.9918  0.3340  0.0848 0.00000  3.629  7.416 22.402 16.920  0.0000  0.0000  0.0000
 2004 327    40    36    102  2.0051  0.0055  1.2656  0.4221  0.1343 0.00000  3.618  7.427 25.161 19.822  0.0000  0.0000  0.0000
 2004 328    41    37    115  2.1665  0.0075  1.3328  0.4466  0.1978 0.00000  3.597  7.409 30.033 23.295  0.0000  0.0000  0.0000
[...]
 2010 056   134   130   5733  3.2041  0.4127  1.5081  0.5577  1.4969 0.00000  6.457  9.271 20.027 15.892  6.4045 20.3318 31.1401
 2010 057   135   131   5684  2.8170  0.4037  1.1454  0.3434  1.7868 0.00000  6.198  8.782 21.542 18.157  6.4037 20.3226 31.1544
 2010 058   136   132   5640  2.3491  0.3971  0.4699  0.1348  2.1604 0.00000  5.917  8.314 24.022 20.601  6.4033 20.3217 31.1579
 2010 059   137   133   5601  1.7713  0.3816  0.0000  0.0000  2.3804 0.00000  5.629  7.871 25.048 22.163  6.4033 20.3217 31.1579
 2010 060   138   134   5568  1.5234  0.3635  0.0000  0.0000  3.5360 0.00000  5.345  7.454 34.611 27.062  6.4033 20.3217 31.1579
 2010 061   139   135   5540  1.1089  0.3323  0.0000  0.0000  2.4932 0.00000  5.080  7.074 27.560 22.897  6.4033 20.3217 31.1579
 2010 062   140   136   5514  0.5662  0.3091  0.0000  0.0000  2.3798 0.00000  4.827  6.724 26.909 22.603  6.4033 20.3217 31.1579

*DSSAT Cropping System Model Ver. 4.6.1.000 -release      OCT 17, 2016; 12:01:09
                                                                                
*RUN  11        : UYSB                      CRGRO046 UYSB0876    1              
 MODEL          : CRGRO046 - Soybean                                            
 EXPERIMENT     : UYSB0876 SN late to create DSS                                
 DATA PATH      :                                                               
 TREATMENT  1   : UYSB                      CRGRO046                            
  
@YEAR DOY   DAS   DAP   TWAD    PHAD    CMAD    CGRD    GRAD    MRAD    CHAD   CL%D   CS%D   TGNN   TGAV    GN%D    GL%D    GC%D
 2010 291     4     0      0  0.0000  0.0000  0.0000  0.0000  0.0000 0.00000  0.000  0.000 20.083 13.699  0.0000  0.0000  0.0000
 2010 292     5     1      0  0.0000  0.0000  0.0000  0.0000  0.0000 0.00000  0.000  0.000 21.126 14.348  0.0000  0.0000  0.0000
 2010 293     6     2      0  0.0000  0.0000  0.0000  0.0000  0.0000 0.00000  0.000  0.000 23.464 17.933  0.0000  0.0000  0.0000
 2010 294     7     3      0  0.0000  0.0000  0.0000  0.0000  0.0000 0.00000  0.000  0.000 25.912 19.523  0.0000  0.0000  0.0000
 2010 295     8     4      0  0.0000  0.0000  0.0000  0.0000  0.0000 0.00000  0.000  0.000 23.754 19.827  0.0000  0.0000  0.0000
 2010 296     9     5      0  0.0000  0.0000  0.0000  0.0000  0.0000 0.00000  0.000  0.000 20.291 15.721  0.0000  0.0000  0.0000
 2010 297    10     6      0  0.0000  0.0000  0.0000  0.0000  0.0000 0.00000  0.000  0.000 20.989 15.918  0.0000  0.0000  0.0000
 2010 298    11     7      8  0.0000  0.0004  0.0002  0.0001  0.0000 0.00000  3.958  7.912 20.274 16.595  0.0000  0.0000  0.0000
 2010 299    12     8      8  0.1268  0.0003  0.0817  0.0289  0.0055 0.00000  3.933  7.866 19.820 13.817  0.0000  0.0000  0.0000
 2010 300    13     9      9  0.1583  0.0004  0.1012  0.0348  0.0091 0.00000  3.895  7.798 21.767 17.800  0.0000  0.0000  0.0000
 2010 301    14    10     11  0.2080  0.0005  0.1338  0.0448  0.0121 0.00000  3.860  7.745 23.556 18.088  0.0000  0.0000  0.0000
 2010 302    15    11     11  0.0898  0.0005  0.0566  0.0201  0.0059 0.00000  3.830  7.685 19.226 15.865  0.0000  0.0000  0.0000
 2010 303    16    12     12  0.1907  0.0004  0.1242  0.0415  0.0088 0.00000  3.810  7.662 19.620 15.008  0.0000  0.0000  0.0000
 2010 304    17    13     14  0.2406  0.0006  0.1569  0.0507  0.0128 0.00000  3.785  7.637 22.248 16.706  0.0000  0.0000  0.0000
 2010 305    18    14     16  0.2714  0.0007  0.1768  0.0563  0.0157 0.00000  3.757  7.609 22.900 17.714  0.0000  0.0000  0.0000
 2010 306    19    15     18  0.3017  0.0008  0.1971  0.0617  0.0178 0.00000  3.731  7.587 24.242 17.410  0.0000  0.0000  0.0000
 2010 307    20    16     20  0.3400  0.0011  0.2184  0.0682  0.0259 0.00000  3.698  7.547 27.535 20.416  0.0000  0.0000  0.0000
 2010 308    21    17     22  0.3106  0.0013  0.1965  0.0610  0.0288 0.00000  3.656  7.488 28.717 22.277  0.0000  0.0000  0.0000
 2010 309    22    18     24  0.3899  0.0012  0.2542  0.0773  0.0266 0.00000  3.628  7.467 24.711 19.236  0.0000  0.0000  0.0000
 2010 310    23    19     26  0.3795  0.0012  0.2334  0.0910  0.0238 0.00000  3.641  7.426 23.660 17.541  0.0000  0.0000  0.0000
 2010 311    24    20     29  0.4809  0.0017  0.2884  0.1109  0.0433 0.00000  3.641  7.371 29.741 22.296  0.0000  0.0000  0.0000
 2010 312    25    21     32  0.5700  0.0021  0.3393  0.1249  0.0611 0.00000  3.628  7.326 32.607 25.054  0.0000  0.0000  0.0000
 2010 313    26    22     33  0.1493  0.0006  0.0901  0.0382  0.0081 0.00000  3.631  7.305 13.638 11.204  0.0000  0.0000  0.0000
 2010 314    27    23     36  0.4471  0.0009  0.2881  0.0991  0.0191 0.00000  3.636  7.328 19.246 12.766  0.0000  0.0000  0.0000
 2010 315    28    24     38  0.4306  0.0009  0.2774  0.0954  0.0178 0.00000  3.640  7.345 17.977 12.319  0.0000  0.0000  0.0000
 2010 316    29    25     42  0.5041  0.0012  0.3243  0.1104  0.0234 0.00000  3.639  7.357 18.891 14.021  0.0000  0.0000  0.0000
 2010 317    30    26     46  0.6243  0.0015  0.3952  0.1412  0.0309 0.00000  3.644  7.364 20.270 15.077  0.0000  0.0000  0.0000
 2010 318    31    27     49  0.6261  0.0019  0.3925  0.1423  0.0354 0.00000  3.642  7.354 21.029 16.230  0.0000  0.0000  0.0000
 2010 319    32    28     54  0.7492  0.0026  0.4712  0.1667  0.0484 0.00000  3.630  7.345 21.979 18.326  0.0000  0.0000  0.0000
 2010 320    33    29     59  0.9039  0.0027  0.5735  0.1992  0.0549 0.00000  3.620  7.351 21.480 18.077  0.0000  0.0000  0.0000
 2010 321    34    30     66  1.0408  0.0031  0.6625  0.2259  0.0648 0.00000  3.609  7.362 22.970 18.242  0.0000  0.0000  0.0000
 2010 322    35    31     73  1.2061  0.0032  0.7733  0.2593  0.0713 0.00000  3.601  7.384 23.607 17.410  0.0000  0.0000  0.0000
 2010 323    36    32     78  0.7750  0.0036  0.4854  0.1692  0.0571 0.00000  3.584  7.355 23.771 17.466  0.0000  0.0000  0.0000
 2010 324    37    33     86  1.3375  0.0052  0.8184  0.2978  0.1125 0.00000  3.575  7.327 27.225 21.564  0.0000  0.0000  0.0000
 2010 325    38    34     96  1.6515  0.0068  1.0091  0.3545  0.1547 0.00000  3.555  7.303 26.525 23.981  0.0000  0.0000  0.0000
 2010 326    39    35    107  1.8565  0.0060  1.1708  0.3974  0.1325 0.00000  3.545  7.320 24.641 20.305  0.0000  0.0000  0.0000
 2010 327    40    36    117  1.6805  0.0068  1.0583  0.3540  0.1290 0.00000  3.525  7.312 24.309 20.403  0.0000  0.0000  0.0000
 2010 328    41    37    127  1.7252  0.0083  1.0604  0.3702  0.1550 0.00000  3.507  7.281 26.815 21.870  0.0000  0.0000  0.0000
 2010 329    42    38    144  2.7767  0.0073  1.7538  0.5999  0.1817 0.00000  3.516  7.317 25.633 19.146  0.0000  0.0000  0.0000
 2010 330    43    39    163  3.1039  0.0104  1.9244  0.6491  0.2627 0.00000  3.510  7.323 28.514 22.493  0.0000  0.0000  0.0000
 2010 331    44    40    181  3.1021  0.0122  1.8994  0.6357  0.3042 0.00000  3.496  7.311 30.884 23.716  0.0000  0.0000  0.0000
 2010 332    45    41    193  2.0520  0.0089  1.3054  0.4363  0.1303 0.00000  3.486  7.299 20.180 16.954  0.0000  0.0000  0.0000
 2010 333    46    42    207  2.3613  0.0084  1.4559  0.5553  0.1353 0.00000  3.509  7.282 20.878 15.788  0.0000  0.0000  0.0000
 2010 334    47    43    233  4.3137  0.0111  2.6403  0.9968  0.2740 0.00000  3.551  7.289 26.324 17.901  0.0000  0.0000  0.0000
 2010 335    48    44    262  5.0106  0.0170  3.0005  1.1385  0.4264 0.00000  3.570  7.268 29.209 22.327  0.0000  0.0000  0.0000
 2010 336    49    45    294  5.5295  0.0214  3.2612  1.2402  0.5755 0.00000  3.577  7.236 32.132 25.035  0.0000  0.0000  0.0000
 2010 337    50    46    328  6.0317  0.0236  3.5856  1.3937  0.5532 0.00000  3.578  7.209 28.822 23.553  0.0000  0.0000  0.0000
 2010 338    51    47    373  7.5366  0.0226  4.5559  1.7669  0.5825 0.00000  3.592  7.217 28.399 21.194  0.0000  0.0000  0.0000
 2010 339    52    48    426  9.0593  0.0284  5.4542  2.1110  0.7393 0.00000  3.600  7.219 28.385 22.471  0.0000  0.0000  0.0000
 2010 340    53    49    487 10.2836  0.0288  6.3768  2.3417  0.7579 0.00000  3.636  7.234 28.052 20.703  0.0000  0.0000  0.0000
 2010 341    54    50    555 11.6145  0.0303  7.1101  2.6275  0.9098 0.00000  3.664  7.252 30.583 20.367  0.0000  0.0000  0.0000
 2010 342    55    51    615 10.2568  0.0375  6.4049  2.3088  0.7711 0.00000  3.677  7.239 26.885 20.146  0.0000  0.0000  0.0000
 2010 343    56    52    703 14.5219  0.0578  9.3386  2.9273  1.5049 0.02218  3.714  7.291 30.369 25.997  0.0000  0.0000  0.0000
 2010 344    57    53    785 14.5312  0.0495  7.8806  3.5681  1.3465 0.05119  3.704  7.425 32.154 22.370  0.0000  0.0000  0.0000
 2010 345    58    54    857 13.0146  0.0648  7.2383  3.0449  1.2998 0.08445  3.731  7.583 30.118 23.452  0.0000  0.0000  0.0000
 2010 346    59    55    893  6.2985  0.0375  3.6655  1.5018  0.4183 0.05422  3.751  7.672 19.240 15.047  0.0000  0.0000  0.0000
 2010 347    60    56    992 16.3028  0.0422  9.8798  3.7610  0.8477 0.17841  3.871  8.040 23.348 15.142  0.0000  0.0000  0.0000
 2010 348    61    57   1123 22.0167  0.0639 13.0880  5.0937  1.4576 0.29015  4.025  8.508 27.130 18.602  0.0000  0.0000  0.0000
 2010 349    62    58   1258 23.4549  0.1007 13.9609  5.1137  2.0659 0.38269  4.207  8.973 29.351 22.758  0.0000  0.0000  0.0000
 2010 350    63    59   1415 25.5215  0.1234 16.1475  5.0904  2.3621 0.52827  4.408  9.506 29.538 23.447  0.0000  0.0000  0.0000
 2010 351    64    60   1576 27.5183  0.1587 16.6237  5.5657  2.8756 0.64061  4.602 10.026 30.505 25.130  0.0000  0.0000  0.0000
 2010 352    65    61   1712 24.3265  0.1909 14.1588  4.9365  2.7849 0.63130  4.751 10.433 30.085 25.463  0.0000  0.0000  0.0000
 2010 353    66    62   1787 14.2116  0.1686  8.4895  2.8823  1.4531 0.43124  4.836 10.654 22.902 20.753  0.0000  0.0000  0.0000
 2010 354    67    63   1922 24.2869  0.2288 13.9706  4.8609  2.6842 0.80396  4.997 11.102 27.143 24.563  0.0000  0.0000  0.0000
 2010 355    68    64   2120 32.8861  0.2350 19.9598  6.2176  3.3211 1.25089  5.252 11.793 29.686 23.990  0.0000  0.0000  0.0000
 2010 356    69    65   2338 35.5234  0.0000 20.3466  5.5459  3.9793 2.81311  5.983 13.819 30.806 25.432  0.0000  0.0000  0.0000
 2010 357    70    66   2568 36.9312  0.0000 20.4344  5.3178  4.1199 4.07569  6.933 16.446 30.419 25.080  0.0000  0.0000  0.0000
 2010 358    71    67   2637 17.7693  0.4490  5.0173  5.5596  2.4526 0.40797  6.727 16.216 25.696 23.259  0.0000  0.0000  0.0000
 2010 359    72    68   2827 37.9746  0.4983 20.8315  7.4951  4.6567 1.87856  6.950 16.565 30.831 26.066  0.0000  0.0000  0.0000
 2010 360    73    69   3067 39.9746  0.5021 24.1334  7.1225  4.5808 2.21208  7.131 16.959 31.032 24.654  0.0000  0.0000  0.0000
 2010 361    74    70   3311 40.3609  0.5975 24.4850  6.8871  5.1125 2.36056  7.295 17.324 31.437 25.883  0.0000  0.0000  0.0000
 2010 362    75    71   3563 41.7342  0.2977 24.6947  6.8930  4.1779 2.64881  7.550 17.926 27.656 22.424  0.0000  0.0000  0.0000
 2010 363    76    72   3796 39.4850  0.7196 23.7310  6.8274  4.7345 2.40819  7.681 18.209 28.321 24.343  0.0000  0.0000  0.0000
 2010 364    77    73   4059 43.5061  0.6871 26.2389  7.7734  4.4073 2.73110  7.835 18.564 27.060 22.115  0.0000  0.0000  0.0000
 2010 365    78    74   4291 43.5675  0.8275 23.4903  8.3722  5.2506 2.65411  7.957 18.842 28.765 24.106  0.0000  0.0000  0.0000
 2011 001    79    75   4480 36.8883  0.8746 19.9063  6.8597  4.9283 2.18811  8.042 19.013 29.164 23.967  0.0000  0.0000  0.0000
 2011 002    80    76   4644 31.9686  0.8831 17.7371  5.9182  4.1600 1.86617  8.107 19.125 25.884 22.622  0.0000  0.0000  0.0000
 2011 003    81    77   4740 21.0318  0.8452 11.8638  3.8280  3.2220 0.86715  8.102 19.055 23.424 21.345  0.0000  0.0000  0.0000
 2011 004    82    78   4893 31.6144  1.0151 17.1876  5.6913  4.9227 1.73621  8.150 19.126 28.546 24.388  0.0000  0.0000  0.0000
 2011 005    83    79   5031 30.5518  1.0823 16.1535  5.5304  5.1398 1.48915  8.176 19.137 28.852 24.981  0.0000  0.0000  0.0000
 2011 006    84    80   5257 45.3655  1.0890 23.5499  8.4728  6.4513 2.80132  8.303 19.424 30.294 25.204  0.0000  0.0000  0.0000
 2011 007    85    81   5469 45.3123  1.3200 22.6927  7.9263  8.3764 2.79870  8.404 19.645 33.141 28.983  0.0000  0.0000  0.0000
 2011 008    86    82   5670 41.3740  1.2887 21.8924  7.3144  6.9408 2.46144  8.488 19.812 30.699 26.433  0.0000  0.0000  0.0000
 2011 009    87    83   5859 42.2642  1.3709 20.9602  7.7324  7.5214 2.23150  8.542 19.914 31.556 27.183  0.0000  0.0000  0.0000
 2011 010    88    84   5968 27.9068  1.1918 14.5331  5.4373  5.0091 0.63393  8.503 19.756 28.881 23.254  0.0000  0.0000  0.0000
 2011 011    89    85   6068 28.6324  1.2855 15.1383  5.5541  4.9107 0.53732  8.458 19.567 25.813 23.197  0.0000  0.0000  0.0000
 2011 012    90    86   6206 35.9477  1.3591 18.8087  6.8280  5.6751 1.31868  8.466 19.527 27.055 23.757  6.3481 20.5000 31.3243
 2011 013    91    87   6390 43.5175  1.3679 22.3356  8.3245  6.0872 2.11235  8.532 19.655 27.441 23.319  6.3224 20.4943 31.4907
 2011 014    92    88   6567 45.3337  1.4676 23.6033  8.7793  6.4835 2.30556  8.611 19.808 27.765 23.715  6.3345 20.4974 31.4120
 2011 015    93    89   6738 46.3756  1.6309 22.5212  9.2241  7.8802 2.03833  8.647 19.863 31.054 25.930  6.4375 20.4987 30.7668
 2011 016    94    90   6837 37.1584  1.7686 18.0499  7.1144  8.0644 1.08428  8.608 19.704 32.624 27.427  6.5313 20.4992 30.1801
 2011 017    95    91   6936 37.0522  1.6816 18.2996  7.9862  6.5958 0.48646  8.532 19.442 28.848 24.511  6.4870 20.4995 30.4567
 2011 018    96    92   7079 43.7052  1.6803 21.6136  9.2125  7.3078 1.21318  8.517 19.343 30.061 24.722  6.4697 20.4997 30.5646
 2011 019    97    93   7225 44.2071  1.7402 21.0641  9.6144  7.6474 1.05335  8.485 19.200 30.530 25.119  6.4694 20.4998 30.5666
 2011 020    98    94   7356 44.5222  1.7789 21.3769  9.8192  7.5521 0.86579  8.436 19.012 29.790 24.810  6.4626 20.4998 30.6091
 2011 021    99    95   7504 43.9987  1.5783 21.5308 10.1540  6.1538 0.87076  8.406 18.872 28.035 21.622  6.4080 20.4330 31.0173
 2011 022   100    96   7615 42.0759  1.8876 20.5562  9.4494  7.8350 0.00000  8.280 18.469 30.020 25.398  6.4249 20.4464 30.8978
 2011 023   101    97   7715 43.8473  1.9087 20.9541 10.0474  8.2898 0.01554  8.152 18.063 30.502 25.845  6.4447 20.4562 30.7641
 2011 024   102    98   7788 39.7319  2.0672 18.2057  8.5844  9.8786 0.00000  8.008 17.614 32.989 29.084  6.5071 20.4635 30.3672
 2011 025   103    99   7861 38.6865  1.9502 18.0770  8.8314  8.5830 0.00000  7.874 17.187 31.088 26.933  6.5275 20.4696 30.2333
 2011 026   104   100   7862 21.0329  1.7614 10.0100  4.1009  7.2706 0.05618  7.755 16.810 33.817 26.402  6.5354 20.4740 30.1794
 2011 027   105   101   7932 35.4307  1.8734 16.3202  8.1992  8.1480 0.00000  7.630 16.390 30.680 26.526  6.5442 20.4780 30.1209
 2011 028   106   102   8019 39.8078  1.8738 18.6233  9.1790  8.9503 0.00000  7.504 15.965 31.448 27.222  6.5592 20.4810 30.0239
 2011 029   107   103   8100 39.5817  1.8144 18.6071  9.2779  8.5679 0.00000  7.380 15.547 30.874 26.469  6.5629 20.4834 29.9984
 2011 030   108   104   8111 23.0729  1.6550 11.4468  5.1220  7.0501 0.03179  7.274 15.174 30.413 25.866  6.5722 20.4592 29.9647
 2011 031   109   105   8068 18.7308  1.7133  9.8737  3.5759  6.8635 0.00445  7.158 14.768 30.636 26.161  6.5727 20.4597 29.9609
 2011 032   110   106   8138 33.1679  1.5857 16.3495  8.5552  6.5424 0.00000  7.051 14.379 26.626 23.654  6.5516 20.4460 30.1062
 2011 033   111   107   8255 40.8004  1.4004 20.3112 10.2802  6.3439 0.00000  6.957 14.029 28.104 21.553  6.4955 20.4531 30.4498
 2011 034   112   108   8346 38.8048  1.5173 17.9406  9.6628  8.3007 0.00000  6.845 13.641 32.183 25.346  6.4890 20.4699 30.4740
 2011 035   113   109   8412 31.4951  1.2032 14.9294  7.7335  7.3434 0.10013  6.785 13.370 29.345 24.943  6.5087 20.4253 30.3956
 2011 036   114   110   8496 37.3871  1.1534 16.7053  9.4350  8.9382 0.11914  6.731 13.114 32.082 26.786  6.5434 20.3810 30.2225
 2011 037   115   111   8569 31.2043  1.1809 14.6477  7.7396  7.4478 0.09469  6.664 12.833 28.950 25.086  6.5558 20.3524 30.1738
 2011 038   116   112   8611 28.3591  1.2072 13.3784  6.8214  7.2664 0.07722  6.585 12.531 28.931 25.032  6.5636 20.3332 30.1443
 2011 039   117   113   8614 15.9816  1.2163  8.7887  3.2267  4.7636 0.01788  6.483 12.192 22.396 21.394  6.5520 20.3180 30.2322
 2011 040   118   114   8648 19.2173  1.0814 10.0178  4.3270  4.7539 0.04481  6.396 11.897 22.066 20.993  6.5433 20.2872 30.3170
 2011 041   119   115   8683 19.3374  1.1160  9.9643  4.2641  4.9162 0.03225  6.297 11.580 23.741 21.381  6.5340 20.2693 30.3933
 2011 042   120   116   8779 31.8244  0.9704 14.8077  8.0228  6.3004 0.09086  6.224 11.326 25.211 23.030  6.5330 20.2533 30.4152
 2011 043   121   117   8844 23.9266  0.9583 11.4709  5.8069  5.2601 0.07213  6.142 11.063 24.686 21.720  6.5294 20.2306 30.4610
 2011 044   122   118   8942 30.9270  0.7717 14.2452  8.1986  5.4899 0.11926  6.091 10.874 25.272 21.305  6.5284 20.1899 30.5075
 2011 045   123   119   9039 29.9305  0.8015 13.8636  8.1637  5.2325 0.10146  6.025 10.665 25.063 20.847  6.5251 20.1495 30.5684
 2011 046   124   120   9134 27.8927  0.6906 13.1933  8.1366  4.2916 0.10311  5.971 10.489 24.460 18.315  6.5242 20.0454 30.6785
 2011 047   125   121   9220 28.0388  0.7971 12.5634  7.5954  5.5020 0.10365  5.896 10.276 26.837 21.622  6.5239 20.0258 30.6996
 2011 048   126   122   9292 26.9637  0.9729 11.4486  6.8782  6.9525 0.07772  5.785  9.991 29.291 25.184  6.5311 20.0241 30.6567
 2011 049   127   123   9353 24.1681  0.9719 10.1455  6.0069  6.6962 0.06969  5.664  9.698 29.270 25.128  6.5369 20.0224 30.6218
 2011 050   128   124   9419 23.3870  0.8575 10.2408  6.1600  5.3091 0.07498  5.557  9.442 25.678 22.287  6.5363 20.0157 30.6325
 2011 051   129   125   9473 20.4219  0.8855  8.9010  5.2262  5.1002 0.06011  5.436  9.167 25.323 22.290  6.5352 20.0113 30.6436
 2011 052   130   126   9486 12.7836  1.0870  5.4249  2.5443  5.3001 0.00543  5.263  8.795 27.368 23.978  6.5333 20.0175 30.6496
 2011 053   131   127   9526 17.8984  0.9734  7.4288  4.2923  5.5957 0.02972  5.109  8.468 27.224 23.977  6.5330 20.0210 30.6481
 2011 054   132   128   9519  8.9759  0.9648  3.9373  1.6404  4.0841 0.00251  4.944  8.128 22.575 21.576  6.5298 20.0221 30.6668
 2011 055   133   129   9547 13.5756  0.9237  5.9879  2.6629  4.2746 0.00000  4.782  7.798 23.849 21.389  6.5018 20.0705 30.7931
 2011 056   134   130   9267 13.5771  0.9012  5.8490  2.3582  4.5352 0.00000  4.564  6.941 24.506 22.189  6.4696 20.1327 30.9323
 2011 057   135   131   9060 14.3524  0.7251  6.2248  2.7801  4.1032 0.00000  4.359  6.211 24.211 21.218  6.4344 20.1950 31.0899
 2011 058   136   132   8891 10.4740  0.5580  4.5290  2.3845  3.0563 0.00000  4.179  5.607 23.536 18.299  6.4188 20.2008 31.1817
 2011 059   137   133   8754  8.7849  0.4913  3.6139  1.4646  3.2951 0.00000  3.999  5.081 26.025 19.400  6.3967 20.2323 31.2882
 2011 060   138   134   8628  6.6279  0.4432  2.3347  1.1255  3.3406 0.00000  3.818  4.620 25.123 20.814  6.3955 20.2303 31.2978
 2011 061   139   135   8520  5.0954  0.3970  1.4144  0.4983  3.5538 0.00000  3.639  4.218 27.211 21.978  6.3949 20.2305 31.3014
 2011 062   140   136   8426  3.7970  0.3539  0.4567  0.1310  3.5783 0.00000  3.460  3.870 27.871 22.569  6.3947 20.2307 31.3021
 2011 063   141   137   8346  2.9874  0.3194  0.0000  0.0000  3.5043 0.00000  3.285  3.565 27.255 22.843  6.3947 20.2307 31.3021
 2011 064   142   138   8280  2.4677  0.2660  0.0000  0.0000  2.7936 0.00000  3.131  3.312 25.733 19.936  6.3947 20.2307 31.3021
 2011 065   143   139   8225  1.9220  0.2586  0.0000  0.0000  3.2971 0.00000  2.974  3.080 27.539 22.455  6.3947 20.2307 31.3021
 2011 066   144   140   8177  1.4235  0.2441  0.0000  0.0000  3.5835 0.00000  2.820  2.871 28.726 23.857  6.3947 20.2307 31.3021
 2011 067   145   141   8136  1.2296  0.2328  0.0000  0.0000  3.9487 0.00000  2.668  2.680 29.773 25.473  6.3947 20.2307 31.3021
