*PLANT C OUTPUT FILE

*DSSAT Cropping System Model Ver. 4.6.1.000 -release      OCT 17, 2016; 12:55:38
                                                                                
*RUN   1        : UYSB                      CRGRO046 UYSB0886    1              
 MODEL          : CRGRO046 - Soybean                                            
 EXPERIMENT     : UYSB0886 SN late to create DSS                                
 DATA PATH      :                                                               
 TREATMENT  1   : UYSB                      CRGRO046                            
  
@YEAR DOY   DAS   DAP   TWAD    PHAD    CMAD    CGRD    GRAD    MRAD    CHAD   CL%D   CS%D   TGNN   TGAV    GN%D    GL%D    GC%D
 2000 286     4     0      0  0.0000  0.0000  0.0000  0.0000  0.0000 0.00000  0.000  0.000 25.500 21.582  0.0000  0.0000  0.0000
 2000 287     5     1      0  0.0000  0.0000  0.0000  0.0000  0.0000 0.00000  0.000  0.000 20.276 16.748  0.0000  0.0000  0.0000
 2000 288     6     2      0  0.0000  0.0000  0.0000  0.0000  0.0000 0.00000  0.000  0.000 18.795 16.692  0.0000  0.0000  0.0000
 2000 289     7     3      0  0.0000  0.0000  0.0000  0.0000  0.0000 0.00000  0.000  0.000 18.753 16.080  0.0000  0.0000  0.0000
 2000 290     8     4      0  0.0000  0.0000  0.0000  0.0000  0.0000 0.00000  0.000  0.000 21.944 18.771  0.0000  0.0000  0.0000
 2000 291     9     5      0  0.0000  0.0000  0.0000  0.0000  0.0000 0.00000  0.000  0.000 21.165 19.204  0.0000  0.0000  0.0000
 2000 292    10     6      0  0.0000  0.0000  0.0000  0.0000  0.0000 0.00000  0.000  0.000 22.496 19.892  0.0000  0.0000  0.0000
 2000 293    11     7      0  0.0000  0.0000  0.0000  0.0000  0.0000 0.00000  0.000  0.000 19.218 18.076  0.0000  0.0000  0.0000
 2000 294    12     8      8  0.0000  0.0005  0.0003  0.0001  0.0000 0.00000  3.938  7.872 24.948 21.022  0.0000  0.0000  0.0000
 2000 295    13     9      9  0.1615  0.0005  0.1012  0.0338  0.0121 0.00000  3.887  7.779 25.659 21.268  0.0000  0.0000  0.0000
 2000 296    14    10      9  0.0745  0.0005  0.0462  0.0166  0.0057 0.00000  3.848  7.700 19.163 17.878  0.0000  0.0000  0.0000
 2000 297    15    11      9  0.0749  0.0004  0.0466  0.0167  0.0053 0.00000  3.815  7.635 18.191 16.726  0.0000  0.0000  0.0000
 2000 298    16    12     10  0.0914  0.0005  0.0575  0.0192  0.0068 0.00000  3.778  7.571 20.844 18.058  0.0000  0.0000  0.0000
 2000 299    17    13     11  0.1584  0.0006  0.1121  0.0279  0.0107 0.00000  3.761  7.537 21.203 19.273  0.0000  0.0000  0.0000
 2000 300    18    14     12  0.1736  0.0007  0.1242  0.0286  0.0136 0.00000  3.734  7.497 23.046 20.974  0.0000  0.0000  0.0000
 2000 301    19    15     14  0.2921  0.0007  0.1815  0.0598  0.0169 0.00000  3.700  7.503 22.996 18.600  0.0000  0.0000  0.0000
 2000 302    20    16     15  0.2232  0.0005  0.1435  0.0456  0.0099 0.00000  3.684  7.503 18.506 14.610  0.0000  0.0000  0.0000
 2000 303    21    17     17  0.1918  0.0004  0.1242  0.0395  0.0075 0.00000  3.677  7.505 16.370 12.616  0.0000  0.0000  0.0000
 2000 304    22    18     19  0.3581  0.0009  0.2332  0.0680  0.0217 0.00000  3.653  7.504 24.543 18.250  0.0000  0.0000  0.0000
 2000 305    23    19     21  0.3834  0.0011  0.2344  0.0863  0.0255 0.00000  3.661  7.459 24.543 19.465  0.0000  0.0000  0.0000
 2000 306    24    20     22  0.1990  0.0012  0.1185  0.0462  0.0176 0.00000  3.640  7.382 23.242 19.629  0.0000  0.0000  0.0000
 2000 307    25    21     24  0.3873  0.0011  0.2420  0.0864  0.0232 0.00000  3.640  7.365 21.248 18.135  0.0000  0.0000  0.0000
 2000 308    26    22     28  0.4950  0.0010  0.3138  0.1089  0.0250 0.00000  3.649  7.381 21.391 16.382  0.0000  0.0000  0.0000
 2000 309    27    23     30  0.4096  0.0012  0.2592  0.0889  0.0222 0.00000  3.645  7.375 20.369 16.289  0.0000  0.0000  0.0000
 2000 310    28    24     34  0.6198  0.0014  0.3962  0.1308  0.0335 0.00000  3.643  7.398 22.002 17.243  0.0000  0.0000  0.0000
 2000 311    29    25     38  0.7160  0.0019  0.4482  0.1569  0.0447 0.00000  3.643  7.397 23.235 19.048  0.0000  0.0000  0.0000
 2000 312    30    26     41  0.4929  0.0022  0.3046  0.1084  0.0367 0.00000  3.624  7.358 22.380 19.301  0.0000  0.0000  0.0000
 2000 313    31    27     46  0.7288  0.0026  0.4546  0.1550  0.0557 0.00000  3.605  7.345 23.868 21.004  0.0000  0.0000  0.0000
 2000 314    32    28     48  0.4438  0.0024  0.2745  0.0971  0.0344 0.00000  3.584  7.305 20.093 18.554  0.0000  0.0000  0.0000
 2000 315    33    29     55  1.0391  0.0026  0.6638  0.2258  0.0612 0.00000  3.580  7.348 22.049 18.612  0.0000  0.0000  0.0000
 2000 316    34    30     62  1.2078  0.0033  0.7738  0.2594  0.0803 0.00000  3.593  7.368 24.014 19.968  0.0000  0.0000  0.0000
 2000 317    35    31     70  1.3308  0.0042  0.8192  0.2927  0.0998 0.00000  3.589  7.361 24.582 21.466  0.0000  0.0000  0.0000
 2000 318    36    32     77  1.1448  0.0033  0.7212  0.2551  0.0635 0.00000  3.593  7.364 20.315 17.020  0.0000  0.0000  0.0000
 2000 319    37    33     82  0.8211  0.0018  0.5140  0.1971  0.0313 0.00000  3.610  7.367 14.872 11.971  0.0000  0.0000  0.0000
 2000 320    38    34     87  0.7687  0.0016  0.4881  0.1779  0.0283 0.00000  3.620  7.378 14.988 10.833  0.0000  0.0000  0.0000
 2000 321    39    35     96  1.5068  0.0031  0.9698  0.3269  0.0679 0.00000  3.624  7.411 20.254 14.451  0.0000  0.0000  0.0000
 2000 322    40    36    109  2.0420  0.0049  1.3058  0.4333  0.1156 0.00000  3.619  7.436 23.490 17.508  0.0000  0.0000  0.0000
 2000 323    41    37    124  2.4229  0.0064  1.5359  0.5124  0.1558 0.00000  3.611  7.446 25.430 19.017  0.0000  0.0000  0.0000
 2000 324    42    38    140  2.5857  0.0086  1.6060  0.5528  0.1997 0.00000  3.601  7.428 27.187 21.168  0.0000  0.0000  0.0000
 2000 325    43    39    154  2.2485  0.0063  1.4327  0.5066  0.1147 0.00000  3.602  7.429 19.830 15.996  0.0000  0.0000  0.0000
 2000 326    44    40    172  2.9614  0.0083  1.8887  0.6403  0.1774 0.00000  3.596  7.436 24.001 17.730  0.0000  0.0000  0.0000
 2000 327    45    41    190  3.0233  0.0127  1.8882  0.6356  0.2486 0.00000  3.571  7.404 26.367 21.565  0.0000  0.0000  0.0000
 2000 328    46    42    209  3.4088  0.0159  2.0034  0.7848  0.3498 0.00000  3.572  7.338 30.129 24.431  0.0000  0.0000  0.0000
 2000 329    47    43    223  2.3918  0.0104  1.4692  0.5629  0.1477 0.00000  3.575  7.307 19.478 16.790  0.0000  0.0000  0.0000
 2000 330    48    44    246  3.8013  0.0103  2.3547  0.8920  0.1995 0.00000  3.596  7.309 21.400 16.132  0.0000  0.0000  0.0000
 2000 331    49    45    278  5.3474  0.0165  3.2534  1.2240  0.3755 0.00000  3.610  7.298 25.795 20.240  0.0000  0.0000  0.0000
 2000 332    50    46    299  3.6537  0.0200  2.1867  0.8309  0.3222 0.00000  3.593  7.244 25.824 21.129  0.0000  0.0000  0.0000
 2000 333    51    47    315  2.7983  0.0186  1.6846  0.6548  0.2359 0.00000  3.573  7.192 20.672 19.274  0.0000  0.0000  0.0000
 2000 334    52    48    339  3.9939  0.0154  2.4637  0.9563  0.2358 0.00000  3.574  7.182 19.824 16.706  0.0000  0.0000  0.0000
 2000 335    53    49    379  6.6655  0.0162  4.1433  1.6062  0.3375 0.00000  3.593  7.211 20.854 16.481  0.0000  0.0000  0.0000
 2000 336    54    50    422  7.0534  0.0182  4.3680  1.6927  0.3701 0.00918  3.624  7.285 21.779 16.402  0.0000  0.0000  0.0000
 2000 337    55    51    483 10.0907  0.0274  6.1392  2.3840  0.6526 0.04154  3.698  7.502 25.114 19.558  0.0000  0.0000  0.0000
 2000 338    56    52    537  9.1459  0.0336  5.4969  2.1391  0.6609 0.06392  3.774  7.740 25.557 20.109  0.0000  0.0000  0.0000
 2000 339    57    53    576  6.4719  0.0326  3.8926  1.5176  0.4449 0.06198  3.828  7.921 20.807 18.154  0.0000  0.0000  0.0000
 2000 340    58    54    644 11.3561  0.0337  6.8808  2.6874  0.6325 0.13790  3.968  8.340 21.598 17.584  0.0000  0.0000  0.0000
 2000 341    59    55    728 14.1621  0.0509  8.3300  3.2789  1.0836 0.20903  4.130  8.835 27.782 21.043  0.0000  0.0000  0.0000
 2000 342    60    56    815 15.1054  0.0712  8.6181  3.4492  1.4103 0.26685  4.286  9.325 29.193 23.817  0.0000  0.0000  0.0000
 2000 343    61    57    895 14.3772  0.0884  7.9816  3.2420  1.5548 0.29610  4.420  9.759 30.375 25.214  0.0000  0.0000  0.0000
 2000 344    62    58   1008 19.7828  0.1047 11.2256  4.3528  2.0533 0.48936  4.654 10.420 30.157 25.749  0.0000  0.0000  0.0000
 2000 345    63    59   1119 19.2879  0.1110 11.1892  4.2382  1.7186 0.55603  4.886 11.047 27.592 23.005  0.0000  0.0000  0.0000
 2000 346    64    60   1211 17.1505  0.1416  9.1846  3.9115  1.8351 0.51765  5.029 11.492 28.460 24.590  0.0000  0.0000  0.0000
 2000 347    65    61   1329 21.5689  0.1504 12.3010  4.5209  2.2187 0.76802  5.304 12.152 30.301 24.389  0.0000  0.0000  0.0000
 2000 348    66    62   1469 25.0972  0.1974 14.0150  5.1502  3.0122 0.97042  5.561 12.839 31.855 27.161  0.0000  0.0000  0.0000
 2000 349    67    63   1597 23.7902  0.2208 12.1906  5.4337  2.5634 0.94566  5.716 13.367 28.362 25.030  0.0000  0.0000  0.0000
 2000 350    68    64   1734 24.8203  0.2166 14.0946  5.1212  2.3089 1.17971  6.004 14.034 27.550 22.570  0.0000  0.0000  0.0000
 2000 351    69    65   1856 21.5670  0.1376 11.3578  5.0745  1.1669 0.97980  6.157 14.520 19.597 15.548  0.0000  0.0000  0.0000
 2000 352    70    66   2006 27.2005  0.1916 14.5031  6.2755  1.7464 1.31752  6.376 15.111 23.032 17.729  0.0000  0.0000  0.0000
 2000 353    71    67   2189 32.5348  0.2857 18.5516  6.7487  2.7468 1.77206  6.688 15.812 27.073 21.340  0.0000  0.0000  0.0000
 2000 354    72    68   2370 29.3913  0.2762 17.7700  5.7820  2.1899 1.75907  6.932 16.411 24.539 18.986  0.0000  0.0000  0.0000
 2000 355    73    69   2580 33.3560  0.3589 20.4113  5.8011  2.8839 2.21589  7.207 17.094 26.820 20.944  0.0000  0.0000  0.0000
 2000 356    74    70   2651 13.9830  0.3326  6.8878  3.3321  1.4643 0.68394  7.189 17.130 20.269 18.298  0.0000  0.0000  0.0000
 2000 357    75    71   2862 34.7016  0.0000 18.5903  5.0787  3.4988 4.63477  8.106 19.497 27.752 22.772  0.0000  0.0000  0.0000
 2000 358    76    72   2954 16.8916  0.4017  9.7791  3.3440  1.6076 1.04887  8.162 19.586 19.635 17.844  0.0000  0.0000  0.0000
 2000 359    77    73   3168 33.2253  0.0000 17.8442  4.8803  2.6240 4.88019  8.994 21.771 24.278 18.832  0.0000  0.0000  0.0000
 2000 360    78    74   3378 35.4929  0.0000 18.7271  5.0412  4.5595 4.24026  9.617 23.295 29.750 25.307  0.0000  0.0000  0.0000
 2000 361    79    75   3591 37.6466  0.9688 21.5224  6.2579  5.8576 2.73651  9.682 23.347 33.183 28.023  0.0000  0.0000  0.0000
 2000 362    80    76   3662 17.8351  0.8711 10.1671  3.1081  2.9393 1.05034  9.663 23.206 26.735 22.793  0.0000  0.0000  0.0000
 2000 363    81    77   3803 27.0561  0.7911 14.9160  5.0735  3.0791 1.79216  9.707 23.234 24.681 21.133  0.0000  0.0000  0.0000
 2000 364    82    78   3938 25.6896  0.7576 14.4802  4.7252  2.7755 1.67468  9.753 23.269 22.847 20.016  0.0000  0.0000  0.0000
 2000 365    83    79   4169 38.6252  0.0000 20.7285  5.9555  3.6318 4.15119 10.222 24.380 24.639 20.446  0.0000  0.0000  0.0000
 2000 366    84    80   4391 39.5183  1.0376 22.3352  6.6549  4.5781 3.03683 10.331 24.561 27.597 22.759  0.0000  0.0000  0.0000
 2001 001    85    81   4619 40.2415  1.1291 23.0833  7.1249  4.9354 2.99538 10.416 24.682 28.110 23.308  0.0000  0.0000  0.0000
 2001 002    86    82   4833 40.1689  1.1808 21.9413  7.4349  5.0290 2.89062 10.493 24.786 28.155 23.209  0.0000  0.0000  0.0000
 2001 003    87    83   5038 40.3063  1.2646 21.2962  7.4485  5.6594 2.85617 10.560 24.873 30.266 24.280  0.0000  0.0000  0.0000
 2001 004    88    84   5185 32.4928  1.5489 17.0319  5.6088  6.4159 1.90289 10.548 24.761 31.600 27.585  0.0000  0.0000  0.0000
 2001 005    89    85   5356 40.5947  1.5793 20.8284  7.4169  6.7037 2.67118 10.590 24.777 30.645 26.487  0.0000  0.0000  0.0000
 2001 006    90    86   5533 39.9401  1.6897 20.4485  7.1478  7.2475 2.52353 10.619 24.759 32.069 27.444  6.6741 20.5000 29.2867
 2001 007    91    87   5585 22.9613  0.8774 11.7793  4.2982  4.9163 0.20634 10.616 24.637 27.446 24.901  6.5392 20.5000 30.1299
 2001 008    92    88   5714 33.0217  1.5794 17.3981  6.7674  5.0218 0.97594 10.564 24.424 26.974 23.174  6.4137 20.4911 30.9232
 2001 009    93    89   5869 37.6904  1.6431 19.1203  7.5088  5.6533 1.71911 10.546 24.319 28.216 23.735  6.3870 20.4946 31.0865
 2001 010    94    90   5899 17.1955  0.3966  9.2974  3.0725  3.0556 0.26456 10.600 24.341 21.809 19.444  6.3167 20.0422 31.9785
 2001 011    95    91   6027 35.1113  1.2382 17.1619  7.9831  3.3988 1.13313 10.600 24.261 21.303 17.862  6.2913 19.4249 32.7548
 2001 012    96    92   6178 34.2831  1.1929 18.4604  7.0622  3.2117 1.84540 10.649 24.318 21.832 16.886  6.2917 18.8147 33.3622
 2001 013    97    93   6314 35.5129  1.5791 18.1887  7.7722  4.5242 1.30834 10.633 24.199 25.634 20.437  6.2623 19.0517 33.3091
 2001 014    98    94   6381 29.3317  2.0466 15.3952  5.9791  6.0878 0.17351 10.490 23.764 28.955 25.407  6.3175 19.3971 32.6182
 2001 015    99    95   6486 36.8754  2.0062 18.2512  7.9219  6.2094 0.77425 10.395 23.454 27.252 24.493  6.3403 19.6596 32.2134
 2001 016   100    96   6546 34.7609  2.0339 17.5148  7.2008  6.3604 0.61074 10.285 23.107 28.523 24.904  6.3643 19.8446 31.8782
 2001 017   101    97   6594 26.5286  1.9281 13.9686  5.9409  5.1308 0.00000 10.138 22.660 25.626 23.333  6.3519 19.9978 31.8028
 2001 018   102    98   6629 23.4725  1.9126 12.2751  5.1629  4.9174 0.00000  9.993 22.213 24.521 23.267  6.3421 20.1035 31.7581
 2001 019   103    99   6681 26.0994  1.8113 13.4896  5.9527  4.7587 0.00000  9.857 21.785 25.248 22.238  6.3220 20.1511 31.8366
 2001 020   104   100   6821 38.6951  1.6164 21.5207  8.3809  4.6510 0.99943  9.822 21.628 24.193 20.000  6.2972 20.0392 32.1032
 2001 021   105   101   6931 38.5285  1.5977 19.2844  9.4366  4.5347 0.66961  9.761 21.401 24.386 19.406  6.2791 19.8991 32.3568
 2001 022   106   102   6961 24.5732  1.7889 12.8754  5.7938  4.6515 0.00000  9.625 20.975 26.265 21.500  6.2674 19.9383 32.3903
 2001 023   107   103   7050 38.1619  1.9488 18.2628  9.3146  6.6301 0.00000  9.474 20.502 28.757 24.243  6.2860 20.0229 32.1893
 2001 024   108   104   7124 37.4809  1.9014 18.2513  8.9414  6.7726 0.00000  9.324 20.035 29.996 24.300  6.3011 20.0882 32.0300
 2001 025   109   105   7191 36.3868  1.9983 17.3744  8.6133  7.4931 0.00000  9.162 19.537 30.549 26.036  6.3342 20.1431 31.7681
 2001 026   110   106   7215 32.2112  1.9978 15.2643  7.4964  7.6590 0.00000  8.996 19.030 31.575 26.883  6.3704 20.1876 31.4972
 2001 027   111   107   7213 18.3502  1.7620  9.7358  4.3543  5.0503 0.01932  8.858 18.583 24.955 23.559  6.3748 20.2076 31.4501
 2001 028   112   108   7225 14.9900  1.5142  8.8236  3.5367  3.6403 0.00901  8.745 18.191 21.166 20.056  6.3584 20.1296 31.6303
 2001 029   113   109   7318 34.6576  1.4848 17.0665  9.1617  4.6085 0.00000  8.635 17.797 24.837 19.573  6.3390 20.0324 31.8489
 2001 030   114   110   7401 34.9432  1.5654 17.4590  9.0239  5.1454 0.00000  8.511 17.373 24.894 21.063  6.3069 20.0612 32.0208
 2001 031   115   111   7477 32.9248  1.7082 15.7752  8.3279  6.5625 0.00000  8.366 16.900 28.750 24.311  6.3093 20.1220 31.9452
 2001 032   116   112   7524 26.8389  1.5079 12.9115  6.6891  6.6753 0.07311  8.257 16.507 28.870 25.505  6.3483 20.1163 31.7071
 2001 033   117   113   7592 33.1691  1.7183 15.2192  8.3594  7.7322 0.00000  8.101 16.009 30.726 26.502  6.3729 20.1480 31.5216
 2001 034   118   114   7678 31.0555  1.1796 15.2845  8.5548  5.1804 0.08733  8.026 15.702 24.491 21.448  6.3770 20.1054 31.5387
 2001 035   119   115   7765 32.3394  1.4282 15.6564  8.8434  5.4021 0.00000  7.891 15.272 26.531 21.342  6.3615 20.1048 31.6356
 2001 036   120   116   7846 31.2968  1.1227 14.8066  8.2769  6.0065 0.11219  7.821 14.979 26.241 23.092  6.3780 20.0884 31.5491
 2001 037   121   117   7911 30.9596  1.1089 14.2239  8.1314  6.5817 0.10893  7.744 14.682 29.390 23.880  6.3963 20.0761 31.4469
 2001 038   122   118   7979 30.2584  1.1734 13.0598  7.5177  8.1492 0.11277  7.654 14.356 32.285 27.276  6.4310 20.0618 31.2446
 2001 039   123   119   8005 17.7182  1.4212  8.6603  3.7835  5.9732 0.01628  7.494 13.894 28.514 25.080  6.4349 20.0728 31.2089
 2001 040   124   120   8065 25.2569  1.1773 11.1495  6.0798  7.0301 0.08278  7.378 13.536 30.604 26.169  6.4537 20.0660 31.0986
 2001 041   125   121   8074 14.7964  1.4303  6.9887  2.6360  6.2376 0.00170  7.194 13.044 29.891 26.422  6.4576 20.0778 31.0623
 2001 042   126   122   8120 22.2445  1.2291  9.5594  5.0164  7.2047 0.05123  7.044 12.636 31.551 27.261  6.4725 20.0781 30.9689
 2001 043   127   123   8179 19.7090  0.9171  9.6413  5.0735  3.8052 0.06151  6.937 12.338 23.079 19.362  6.4706 20.0254 31.0333
 2001 044   128   124   8254 24.1762  0.8995 11.2844  6.5395  4.4775 0.07350  6.830 12.047 25.658 20.440  6.4687 19.9927 31.0780
 2001 045   129   125   8321 23.3329  0.9549 10.4791  6.1740  5.1590 0.07337  6.708 11.730 26.919 22.596  6.4706 19.9884 31.0704
 2001 046   130   126   8374 20.6141  0.9304  9.0934  5.2444  5.0931 0.07829  6.585 11.420 26.750 22.998  6.4748 19.9828 31.0498
 2001 047   131   127   8440 22.2377  0.8843  9.9464  6.0054  4.7051 0.07184  6.461 11.119 26.078 21.684  6.4750 19.9720 31.0591
 2001 048   132   128   8493 20.0161  0.9086  8.7486  5.1863  4.8829 0.06460  6.324 10.801 27.097 22.526  6.4766 19.9682 31.0532
 2001 049   133   129   8530 17.8724  1.0050  7.2569  4.1799  5.9097 0.05173  6.160 10.433 29.504 25.684  6.4835 19.9678 31.0104
 2001 050   134   130   8574 17.7338  0.8473  7.6428  2.7662  5.8990 0.08791  6.028 10.141 30.059 25.668  6.4175 20.1177 31.2727
 2001 051   135   131   8351 17.8856  0.2610  7.5165  2.6706  5.4820 0.25078  6.021  9.651 29.318 24.606  6.3517 20.2622 31.5396
 2001 052   136   132   8143 11.0224  0.9324  4.5835  2.2455  4.4780 0.00000  5.743  8.799 27.168 23.778  6.3495 20.2700 31.5458
 2001 053   137   133   7982 11.2321  0.8329  3.9107  1.8720  5.4970 0.00000  5.458  8.032 30.882 27.065  6.3421 20.2945 31.5674
 2001 054   138   134   7842  7.7840  0.6852  2.6527  1.0647  4.3823 0.00000  5.194  7.376 28.970 24.904  6.3412 20.2996 31.5679
 2001 055   139   135   7700  3.4934  0.5881  0.2769  0.0794  3.7356 0.00000  4.929  6.805 27.607 24.113  6.3412 20.2998 31.5676
 2001 056   140   136   7593  2.4485  0.5027  0.0000  0.0000  3.2460 0.00000  4.682  6.312 25.762 22.874  6.3412 20.2998 31.5676
 2001 057   141   137   7506  2.5110  0.4672  0.0000  0.0000  3.5751 0.00000  4.436  5.864 26.649 24.439  6.3412 20.2998 31.5676
 2001 058   142   138   7434  2.6992  0.4286  0.0000  0.0000  3.8667 0.00000  4.198  5.461 28.537 25.616  6.3412 20.2998 31.5676
 2001 059   143   139   7375  2.7451  0.3841  0.0000  0.0000  3.8164 0.00000  3.974  5.104 29.262 25.486  6.3412 20.2998 31.5676
 2001 060   144   140   7324  2.1103  0.3568  0.0000  0.0000  4.1977 0.00000  3.758  4.779 31.630 27.108  6.3412 20.2998 31.5676
 2001 061   145   141   7269  1.1168  0.3105  0.0000  0.0000  3.0944 0.00000  3.564  4.497 25.650 23.479  6.3412 20.2998 31.5676
 2001 062   146   142   7233  1.4528  0.3004  0.0000  0.0000  3.8464 0.00000  3.371  4.232 30.609 26.303  6.3412 20.2998 31.5676

*DSSAT Cropping System Model Ver. 4.6.1.000 -release      OCT 17, 2016; 12:55:38
                                                                                
*RUN   2        : UYSB                      CRGRO046 UYSB0886    1              
 MODEL          : CRGRO046 - Soybean                                            
 EXPERIMENT     : UYSB0886 SN late to create DSS                                
 DATA PATH      :                                                               
 TREATMENT  1   : UYSB                      CRGRO046                            
  
@YEAR DOY   DAS   DAP   TWAD    PHAD    CMAD    CGRD    GRAD    MRAD    CHAD   CL%D   CS%D   TGNN   TGAV    GN%D    GL%D    GC%D
 2001 286     4     0      0  0.0000  0.0000  0.0000  0.0000  0.0000 0.00000  0.000  0.000 21.384 16.967  0.0000  0.0000  0.0000
 2001 287     5     1      0  0.0000  0.0000  0.0000  0.0000  0.0000 0.00000  0.000  0.000 22.552 18.740  0.0000  0.0000  0.0000
 2001 288     6     2      0  0.0000  0.0000  0.0000  0.0000  0.0000 0.00000  0.000  0.000 19.648 18.365  0.0000  0.0000  0.0000
 2001 289     7     3      0  0.0000  0.0000  0.0000  0.0000  0.0000 0.00000  0.000  0.000 21.683 19.544  0.0000  0.0000  0.0000
 2001 290     8     4      0  0.0000  0.0000  0.0000  0.0000  0.0000 0.00000  0.000  0.000 22.705 19.674  0.0000  0.0000  0.0000
 2001 291     9     5      0  0.0000  0.0000  0.0000  0.0000  0.0000 0.00000  0.000  0.000 25.509 21.301  0.0000  0.0000  0.0000
 2001 292    10     6      0  0.0000  0.0000  0.0000  0.0000  0.0000 0.00000  0.000  0.000 24.857 21.219  0.0000  0.0000  0.0000
 2001 293    11     7      8  0.0000  0.0005  0.0003  0.0001  0.0000 0.00000  3.938  7.870 25.701 21.205  0.0000  0.0000  0.0000
 2001 294    12     8      8  0.1112  0.0003  0.0699  0.0256  0.0051 0.00000  3.912  7.816 17.838 14.840  0.0000  0.0000  0.0000
 2001 295    13     9      9  0.1222  0.0003  0.0778  0.0274  0.0051 0.00000  3.892  7.778 17.514 13.730  0.0000  0.0000  0.0000
 2001 296    14    10     10  0.1570  0.0004  0.1015  0.0329  0.0074 0.00000  3.868  7.742 20.643 15.002  0.0000  0.0000  0.0000
 2001 297    15    11     11  0.2189  0.0006  0.1407  0.0443  0.0134 0.00000  3.832  7.695 24.462 18.605  0.0000  0.0000  0.0000
 2001 298    16    12     13  0.2500  0.0008  0.1562  0.0495  0.0224 0.00000  3.785  7.627 29.719 23.253  0.0000  0.0000  0.0000
 2001 299    17    13     14  0.1312  0.0008  0.0825  0.0262  0.0120 0.00000  3.737  7.546 22.054 20.732  0.0000  0.0000  0.0000
 2001 300    18    14     14  0.1179  0.0008  0.0856  0.0193  0.0105 0.00000  3.716  7.479 20.291 19.541  0.0000  0.0000  0.0000
 2001 301    19    15     15  0.1437  0.0009  0.0923  0.0268  0.0135 0.00000  3.677  7.412 22.667 20.880  0.0000  0.0000  0.0000
 2001 302    20    16     16  0.1586  0.0010  0.1045  0.0284  0.0146 0.00000  3.641  7.356 22.952 20.879  0.0000  0.0000  0.0000
 2001 303    21    17     18  0.3030  0.0008  0.1910  0.0616  0.0168 0.00000  3.614  7.372 20.378 17.625  0.0000  0.0000  0.0000
 2001 304    22    18     20  0.3270  0.0008  0.1975  0.0766  0.0177 0.00000  3.627  7.351 20.718 17.071  0.0000  0.0000  0.0000
 2001 305    23    19     22  0.3946  0.0009  0.2425  0.0895  0.0215 0.00000  3.641  7.343 22.030 17.166  0.0000  0.0000  0.0000
 2001 306    24    20     25  0.3760  0.0010  0.2335  0.0844  0.0196 0.00000  3.648  7.337 20.184 16.428  0.0000  0.0000  0.0000
 2001 307    25    21     27  0.4623  0.0010  0.2916  0.1023  0.0234 0.00000  3.652  7.350 20.729 16.329  0.0000  0.0000  0.0000
 2001 308    26    22     31  0.5600  0.0013  0.3555  0.1213  0.0310 0.00000  3.649  7.369 22.006 17.534  0.0000  0.0000  0.0000
 2001 309    27    23     35  0.6898  0.0019  0.4338  0.1455  0.0493 0.00000  3.635  7.380 26.353 20.485  0.0000  0.0000  0.0000
 2001 310    28    24     38  0.4735  0.0024  0.2959  0.1004  0.0427 0.00000  3.621  7.327 25.216 21.745  0.0000  0.0000  0.0000
 2001 311    29    25     39  0.2829  0.0016  0.1666  0.0700  0.0203 0.00000  3.608  7.280 17.402 16.399  0.0000  0.0000  0.0000
 2001 312    30    26     43  0.6556  0.0019  0.4129  0.1446  0.0378 0.00000  3.605  7.296 20.523 17.551  0.0000  0.0000  0.0000
 2001 313    31    27     48  0.8253  0.0022  0.5410  0.1679  0.0494 0.00000  3.627  7.324 22.431 18.206  0.0000  0.0000  0.0000
 2001 314    32    28     52  0.6532  0.0032  0.4366  0.1212  0.0560 0.00000  3.632  7.298 24.143 21.207  0.0000  0.0000  0.0000
 2001 315    33    29     60  1.3329  0.0030  0.8099  0.2863  0.0821 0.00000  3.616  7.355 23.999 19.416  0.0000  0.0000  0.0000
 2001 316    34    30     69  1.4523  0.0039  0.8890  0.3123  0.1043 0.00000  3.615  7.363 25.963 21.022  0.0000  0.0000  0.0000
 2001 317    35    31     74  0.8457  0.0041  0.5184  0.1775  0.0669 0.00000  3.592  7.326 22.810 19.766  0.0000  0.0000  0.0000
 2001 318    36    32     84  1.5651  0.0047  0.9849  0.3181  0.1089 0.00000  3.579  7.347 23.253 20.567  0.0000  0.0000  0.0000
 2001 319    37    33     96  2.0066  0.0049  1.2770  0.4144  0.1240 0.00000  3.577  7.386 23.426 19.379  0.0000  0.0000  0.0000
 2001 320    38    34    106  1.5519  0.0041  0.9906  0.3387  0.0761 0.00000  3.582  7.397 18.819 15.774  0.0000  0.0000  0.0000
 2001 321    39    35    118  2.0388  0.0048  1.2996  0.4426  0.1064 0.00000  3.589  7.417 22.213 16.302  0.0000  0.0000  0.0000
 2001 322    40    36    135  2.6592  0.0077  1.6634  0.5822  0.1889 0.00000  3.587  7.418 26.580 20.310  0.0000  0.0000  0.0000
 2001 323    41    37    150  2.6088  0.0100  1.6136  0.5567  0.2229 0.00000  3.569  7.393 27.861 22.308  0.0000  0.0000  0.0000
 2001 324    42    38    170  3.2447  0.0119  1.9922  0.6798  0.3059 0.00000  3.552  7.377 30.191 23.920  0.0000  0.0000  0.0000
 2001 325    43    39    183  2.3358  0.0139  1.3793  0.5404  0.2325 0.00000  3.542  7.300 25.811 23.231  0.0000  0.0000  0.0000
 2001 326    44    40    204  3.7295  0.0149  2.2201  0.8679  0.3384 0.00000  3.554  7.262 27.927 23.556  0.0000  0.0000  0.0000
 2001 327    45    41    231  4.7692  0.0179  2.7960  1.0905  0.5000 0.00000  3.563  7.232 31.275 25.971  0.0000  0.0000  0.0000
 2001 328    46    42    240  2.0049  0.0111  1.2247  0.4770  0.1387 0.00000  3.555  7.199 19.217 16.637  0.0000  0.0000  0.0000
 2001 329    47    43    257  2.8319  0.0092  1.7612  0.6725  0.1420 0.00000  3.563  7.199 18.046 14.749  0.0000  0.0000  0.0000
 2001 330    48    44    269  2.4836  0.0143  1.5795  0.5367  0.1868 0.00000  3.576  7.160 19.715 18.174  0.0000  0.0000  0.0000
 2001 331    49    45    311  7.1436  0.0176  4.4296  1.5903  0.4586 0.02399  3.685  7.387 23.551 20.253  0.0000  0.0000  0.0000
 2001 332    50    46    355  7.3893  0.0174  4.3841  1.7369  0.4032 0.04265  3.775  7.683 22.041 17.919  0.0000  0.0000  0.0000
 2001 333    51    47    403  7.3850  0.0199  4.9994  1.5156  0.4038 0.06890  3.918  8.050 21.511 17.568  0.0000  0.0000  0.0000
 2001 334    52    48    415  2.9016  0.0179  1.0418  0.8893  0.1857 0.01793  3.873  8.080 16.605 15.028  0.0000  0.0000  0.0000
 2001 335    53    49    472  9.5697  0.0261  5.5587  2.2151  0.5497 0.12072  4.026  8.573 22.608 18.378  0.0000  0.0000  0.0000
 2001 336    54    50    537 10.9273  0.0332  6.4016  2.4682  0.6730 0.16996  4.203  9.116 23.616 19.135  0.0000  0.0000  0.0000
 2001 337    55    51    568  5.3966  0.0340  3.0766  1.2441  0.3717 0.09468  4.263  9.325 19.785 17.348  0.0000  0.0000  0.0000
 2001 338    56    52    603  6.0575  0.0397  3.4770  1.3777  0.4431 0.12288  4.342  9.585 21.185 18.209  0.0000  0.0000  0.0000
 2001 339    57    53    657  9.2045  0.0487  5.3085  2.0875  0.6555 0.21465  4.492 10.039 21.795 19.644  0.0000  0.0000  0.0000
 2001 340    58    54    735 13.3327  0.0578  7.6557  3.0898  0.9201 0.35080  4.723 10.705 23.626 20.221  0.0000  0.0000  0.0000
 2001 341    59    55    827 15.9946  0.0754  9.0327  3.6838  1.2325 0.46600  4.983 11.425 26.465 21.554  0.0000  0.0000  0.0000
 2001 342    60    56    895 11.6497  0.0512  6.6896  2.7963  0.5665 0.36902  5.161 11.914 17.910 15.258  0.0000  0.0000  0.0000
 2001 343    61    57    966 11.9366  0.0472  6.8414  2.8735  0.5426 0.39753  5.333 12.384 19.348 13.578  0.0000  0.0000  0.0000
 2001 344    62    58   1064 16.9109  0.0854  9.5544  3.9825  1.0260 0.59942  5.552 12.974 22.784 17.910  0.0000  0.0000  0.0000
 2001 345    63    59   1157 16.1999  0.0981  9.0228  3.8221  1.0358 0.60812  5.738 13.474 23.065 17.869  0.0000  0.0000  0.0000
 2001 346    64    60   1253 17.5982  0.1555  9.6400  3.9482  1.6293 0.72062  5.918 13.953 27.360 22.415  0.0000  0.0000  0.0000
 2001 347    65    61   1354 18.4848  0.1917 10.4539  3.8805  1.8703 0.85513  6.136 14.468 26.914 23.725  0.0000  0.0000  0.0000
 2001 348    66    62   1475 21.4373  0.2064 12.1455  4.4374  1.9958 1.06800  6.381 15.069 25.774 23.015  0.0000  0.0000  0.0000
 2001 349    67    63   1630 24.6787  0.2051 15.2912  4.7357  1.9337 1.38822  6.679 15.801 24.495 20.984  0.0000  0.0000  0.0000
 2001 350    68    64   1772 24.0611  0.2189 13.7838  5.0897  1.8145 1.33018  6.906 16.381 24.117 19.853  0.0000  0.0000  0.0000
 2001 351    69    65   1941 28.5505  0.2640 16.1398  5.9999  2.2937 1.65677  7.153 17.017 26.252 20.734  0.0000  0.0000  0.0000
 2001 352    70    66   2115 29.6229  0.3047 16.7679  6.0420  2.4323 1.78477  7.387 17.605 25.925 20.873  0.0000  0.0000  0.0000
 2001 353    71    67   2246 23.5975  0.3905 13.1409  4.6614  2.6050 1.45701  7.537 17.958 28.125 23.073  0.0000  0.0000  0.0000
 2001 354    72    68   2368 22.8817  0.4656 12.5304  4.3470  2.9922 1.45343  7.668 18.251 29.365 24.958  0.0000  0.0000  0.0000
 2001 355    73    69   2422 12.0688  0.3208  7.0619  2.3025  1.2854 0.74291  7.729 18.358 19.775 18.091  0.0000  0.0000  0.0000
 2001 356    74    70   2611 30.6349  0.3956 18.2823  5.7325  2.4960 2.25478  7.984 18.967 23.210 20.272  0.0000  0.0000  0.0000
 2001 357    75    71   2798 31.9196  0.3902 17.7017  6.3118  2.4384 2.30394  8.204 19.522 24.620 18.744  0.0000  0.0000  0.0000
 2001 358    76    72   3008 33.8116  0.0000 18.8865  5.4954  2.9033 3.48252  8.740 20.862 25.265 20.320  0.0000  0.0000  0.0000
 2001 359    77    73   3232 35.3454  0.0000 17.5941  4.8270  3.2945 6.41893  9.831 23.723 26.358 21.127  0.0000  0.0000  0.0000
 2001 360    78    74   3450 35.6441  0.0000 18.5790  5.1658  3.8542 4.88140 10.516 25.406 28.284 22.587  0.0000  0.0000  0.0000
 2001 361    79    75   3658 35.4927  0.0000 18.7773  5.2595  4.5642 3.82227 10.958 26.394 29.723 24.671  0.0000  0.0000  0.0000
 2001 362    80    76   3858 35.0336  0.0871 19.0632  5.4746  4.4488 3.02011 11.219 26.894 29.109 24.021  0.0000  0.0000  0.0000
 2001 363    81    77   4051 34.3254  1.1685 19.8821  5.8361  4.5843 2.77731 11.249 26.856 28.481 24.396  0.0000  0.0000  0.0000
 2001 364    82    78   4225 34.2628  1.2511 18.1649  6.2996  4.9964 2.57114 11.267 26.798 29.720 25.205  0.0000  0.0000  0.0000
 2001 365    83    79   4368 29.1856  1.3028 15.8264  5.1845  4.7364 1.99434 11.258 26.680 29.645 25.202  0.0000  0.0000  0.0000
 2002 001    84    80   4573 37.4278  1.2016 20.9714  6.7585  4.4922 2.80563 11.313 26.721 26.851 22.694  0.0000  0.0000  0.0000
 2002 002    85    81   4756 35.6493  1.3200 19.3593  6.6434  4.5738 2.61474 11.358 26.725 26.783 22.984  0.0000  0.0000  0.0000
 2002 003    86    82   4956 38.0172  1.3306 21.5441  6.7283  4.5100 2.88908 11.428 26.799 25.968 22.133  0.0000  0.0000  0.0000
 2002 004    87    83   5109 35.0720  1.4072 18.6324  6.8151  4.4402 2.31151 11.452 26.766 26.380 22.042  6.2277 20.3049 32.2721
 2002 005    88    84   5147 16.6107  0.4566  8.8799  3.1989  2.9487 0.22007 11.494 26.756 21.498 20.422  6.1893 19.8392 32.9774
 2002 006    89    85   5259 28.7803  1.4517 15.4799  6.0919  3.8867 0.83313 11.435 26.521 23.874 21.401  6.1960 20.0001 32.7752
 2002 007    90    86   5419 34.1776  1.2563 18.4863  6.9110  3.4376 2.03804 11.475 26.530 22.443 18.822  6.1948 19.4874 33.2950
 2002 008    91    87   5611 38.0787  1.4504 20.6475  7.4318  4.3490 2.43738 11.522 26.560 26.339 20.317  6.1894 19.5437 33.2725
 2002 009    92    88   5759 35.6266  1.6464 18.1645  7.5739  4.5917 1.65037 11.501 26.430 25.650 21.528  6.1935 19.7033 33.0870
 2002 010    93    89   5877 36.3806  1.7814 18.5214  7.6032  5.1179 1.67811 11.476 26.285 27.292 22.489  6.2069 19.8612 32.8459
 2002 011    94    90   5991 34.4633  1.9826 17.2927  7.2701  5.8129 1.09768 11.396 26.006 28.765 24.428  6.2585 20.0257 32.3584
 2002 012    95    91   6121 37.2077  2.0650 18.1459  7.8092  6.6034 1.24615 11.318 25.738 30.446 25.535  6.3151 20.1344 31.8964
 2002 013    96    92   6225 35.6045  2.1636 17.6847  7.4031  6.8852 0.92725 11.210 25.396 30.865 26.277  6.3664 20.2078 31.5020
 2002 014    97    93   6278 20.9855  1.6466 11.7772  4.6468  3.3660 0.00000 11.089 25.018 22.505 19.351  6.3286 19.9819 31.9645
 2002 015    98    94   6400 30.4634  1.4538 15.7831  7.2734  3.2106 0.39006 11.013 24.757 21.627 17.218  6.3182 19.5276 32.4834
 2002 016    99    95   6507 31.8395  1.5301 16.8260  7.3421  3.4678 0.79171 10.959 24.555 22.269 17.718  6.3063 19.2737 32.8119
 2002 017   100    96   6601 32.0749  1.6771 16.7908  7.4369  3.9452 0.61963 10.879 24.287 23.770 18.968  6.2880 19.2069 32.9931
 2002 018   101    97   6689 34.0361  1.7112 17.9639  8.0250  4.0714 0.45823 10.784 23.981 23.299 19.106  6.2716 19.1643 33.1379
 2002 019   102    98   6783 36.0232  1.9014 19.0359  8.2071  5.0711 0.52488 10.674 23.642 26.602 21.120  6.2586 19.3038 33.0797
 2002 020   103    99   6834 32.7936  2.1946 16.0147  7.2932  7.1323 0.00000 10.494 23.122 32.151 26.023  6.3034 19.4886 32.6150
 2002 021   104   100   6862 27.7889  2.1826 13.8081  6.4409  5.9069 0.00000 10.313 22.597 27.761 24.536  6.3218 19.6526 32.3358
 2002 022   105   101   6916 33.7084  2.1769 16.1227  7.8734  7.0366 0.00000 10.132 22.064 30.506 25.849  6.3528 19.7769 32.0180
 2002 023   106   102   6967 31.9276  2.0796 15.3921  7.3864  6.7187 0.00000  9.957 21.548 30.829 25.204  6.3697 19.8758 31.8138
 2002 024   107   103   6938 21.7789  2.0786 11.1208  4.9712  5.5921 0.00000  9.780 21.024 28.042 24.531  6.3761 19.9614 31.6881
 2002 025   108   104   6992 31.9844  2.0077 15.4614  7.7919  6.1774 0.00000  9.610 20.506 27.911 24.328  6.3791 20.0342 31.5962
 2002 026   109   105   7007 20.3440  1.8408 10.8419  4.6403  4.6208 0.00000  9.455 20.025 24.825 22.318  6.3615 20.0770 31.6637
 2002 027   110   106   7001 24.9371  1.8652 12.7444  6.1195  5.2384 0.00000  9.299 19.528 25.651 23.215  6.3544 20.1261 31.6589
 2002 028   111   107   7064 33.0179  1.8076 15.8915  8.1266  6.1872 0.00000  9.142 19.031 29.128 23.828  6.3544 20.1687 31.6163
 2002 029   112   108   7122 32.5070  1.7926 15.6143  7.9388  6.6689 0.00000  8.982 18.529 30.742 24.726  6.3628 20.2036 31.5292
 2002 030   113   109   7173 30.9806  1.7783 14.8610  7.7944  6.3524 0.00000  8.818 18.021 29.085 24.466  6.3678 20.2348 31.4664
 2002 031   114   110   7213 26.4975  1.7065 13.0597  6.7089  5.5301 0.00000  8.657 17.522 26.487 23.408  6.3626 20.2620 31.4718
 2002 032   115   111   7287 31.1761  1.5192 15.5317  8.2073  4.8382 0.00000  8.515 17.069 24.155 21.005  6.3454 20.2333 31.6078
 2002 033   116   112   7369 27.7855  1.3443 14.3169  7.8768  3.8532 0.00000  8.388 16.660 22.927 18.452  6.3331 20.0773 31.8409
 2002 034   117   113   7448 26.5803  1.2940 13.6745  7.6925  3.6743 0.00000  8.262 16.259 22.565 17.948  6.3244 19.9114 32.0610
 2002 035   118   114   7530 29.0277  1.3937 14.2971  8.0973  4.6887 0.00000  8.120 15.819 25.174 20.343  6.3124 19.8918 32.1558
 2002 036   119   115   7584 22.4745  1.2651 11.3512  5.7578  4.8322 0.04872  8.004 15.434 26.026 21.589  6.3158 19.8891 32.1370
 2002 037   120   116   7633 21.9279  1.1954 11.0199  5.5999  4.7058 0.05887  7.894 15.069 24.837 21.438  6.3207 19.8795 32.1163
 2002 038   121   117   7698 24.4242  1.0556 11.9533  6.5200  4.6471 0.08524  7.804 14.755 24.674 20.882  6.3283 19.8502 32.0978
 2002 039   122   118   7758 21.6841  1.1515 10.7092  5.5685  4.7013 0.05803  7.687 14.388 24.801 21.581  6.3323 19.8458 32.0772
 2002 040   123   119   7786 12.7924  1.1639  7.1949  3.0547  3.3100 0.01004  7.545 13.986 21.386 18.883  6.3295 19.8085 32.1321
 2002 041   124   120   7850 22.9043  1.0718 10.8542  5.9355  4.9903 0.07464  7.430 13.641 25.365 22.326  6.3373 19.8098 32.0818
 2002 042   125   121   7915 22.8160  1.0533 10.7505  6.0028  4.8840 0.06586  7.308 13.292 26.647 21.856  6.3422 19.8087 32.0528
 2002 043   126   122   7945 14.5833  1.1445  7.2683  3.3285  4.2496 0.02998  7.153 12.884 23.725 21.831  6.3430 19.8122 32.0439
 2002 044   127   123   8001 21.3402  1.0805  9.6703  5.2917  5.3660 0.05831  7.009 12.507 27.572 23.605  6.3510 19.8203 31.9861
 2002 045   128   124   8056 21.8599  1.0107  9.4321  5.4567  5.8838 0.07666  6.874 12.158 29.457 24.741  6.3644 19.8221 31.9006
 2002 046   129   125   8108 20.6130  1.0227  8.9818  5.1706  5.5263 0.06081  6.724 11.791 28.654 24.188  6.3731 19.8270 31.8409
 2002 047   130   126   8164 19.4035  0.8706  8.9054  5.2324  4.0796 0.06756  6.598 11.481 24.359 20.644  6.3760 19.8088 31.8414
 2002 048   131   127   8220 18.8352  0.7895  8.5969  5.1666  3.7962 0.07811  6.483 11.205 24.046 19.832  6.3800 19.7770 31.8479
 2002 049   132   128   8269 17.3009  0.8357  7.8777  4.6491  3.8055 0.06098  6.349 10.897 24.410 20.126  6.3822 19.7562 31.8548
 2002 050   133   129   8302 14.4468  1.0628  6.5735  2.9839  4.3788 0.00000  6.147 10.460 26.494 22.424  6.3496 19.8309 31.9839
 2002 051   134   130   8060 11.7349  1.0247  5.3692  1.8448  4.2987 0.00000  5.872  9.518 25.714 22.894  6.3116 19.9173 32.1350
 2002 052   135   131   7883 12.5971  0.8364  5.6134  2.3145  3.9061 0.00000  5.612  8.705 24.809 21.991  6.2796 19.9868 32.2658
 2002 053   136   132   7733 10.0051  0.7228  4.1071  1.7225  3.8486 0.00000  5.357  7.988 25.839 22.628  6.2710 20.0094 32.2967
 2002 054   137   133   7605  6.9741  0.5758  2.9399  1.3671  2.8982 0.00000  5.128  7.387 23.776 19.960  6.2702 20.0047 32.3067
 2002 055   138   134   7501  4.5063  0.4381  2.0885  0.9811  1.8467 0.00000  4.936  6.898 20.150 15.586  6.2711 19.9771 32.3287
 2002 056   139   135   7412  4.6735  0.4425  1.6325  0.5938  2.8657 0.00000  4.725  6.435 27.266 19.958  6.2706 19.9747 32.3341
 2002 057   140   136   7328  3.4416  0.4498  0.0000  0.0000  4.0282 0.00000  4.478  5.991 31.053 25.600  6.2706 19.9747 32.3341
 2002 058   141   137   7259  2.8578  0.4089  0.0000  0.0000  4.1217 0.00000  4.242  5.592 31.813 26.291  6.2706 19.9747 32.3341
 2002 059   142   138   7196  1.9113  0.3816  0.0000  0.0000  4.1933 0.00000  4.010  5.228 31.392 27.224  6.2706 19.9747 32.3341
 2002 060   143   139   7150  1.7131  0.2942  0.0000  0.0000  2.3151 0.00000  3.825  4.938 23.356 19.581  6.2706 19.9747 32.3341
 2002 061   144   140   7110  1.5268  0.2787  0.0000  0.0000  2.5583 0.00000  3.644  4.671 26.400 20.455  6.2706 19.9747 32.3341
 2002 062   145   141   7075  1.2076  0.2792  0.0000  0.0000  3.2707 0.00000  3.459  4.413 29.737 23.901  6.2706 19.9747 32.3341

*DSSAT Cropping System Model Ver. 4.6.1.000 -release      OCT 17, 2016; 12:55:38
                                                                                
*RUN   3        : UYSB                      CRGRO046 UYSB0886    1              
 MODEL          : CRGRO046 - Soybean                                            
 EXPERIMENT     : UYSB0886 SN late to create DSS                                
 DATA PATH      :                                                               
 TREATMENT  1   : UYSB                      CRGRO046                            
  
@YEAR DOY   DAS   DAP   TWAD    PHAD    CMAD    CGRD    GRAD    MRAD    CHAD   CL%D   CS%D   TGNN   TGAV    GN%D    GL%D    GC%D
 2002 286     4     0      0  0.0000  0.0000  0.0000  0.0000  0.0000 0.00000  0.000  0.000 28.508 24.839  0.0000  0.0000  0.0000
 2002 287     5     1      0  0.0000  0.0000  0.0000  0.0000  0.0000 0.00000  0.000  0.000 29.406 25.487  0.0000  0.0000  0.0000
 2002 288     6     2      0  0.0000  0.0000  0.0000  0.0000  0.0000 0.00000  0.000  0.000 28.896 25.867  0.0000  0.0000  0.0000
 2002 289     7     3      0  0.0000  0.0000  0.0000  0.0000  0.0000 0.00000  0.000  0.000 19.577 16.725  0.0000  0.0000  0.0000
 2002 290     8     4      0  0.0000  0.0000  0.0000  0.0000  0.0000 0.00000  0.000  0.000 19.903 15.695  0.0000  0.0000  0.0000
 2002 291     9     5      8  0.0000  0.0005  0.0003  0.0001  0.0000 0.00000  3.948  7.891 23.681 18.938  0.0000  0.0000  0.0000
 2002 292    10     6      8  0.0851  0.0005  0.0522  0.0182  0.0081 0.00000  3.890  7.777 23.483 21.557  0.0000  0.0000  0.0000
 2002 293    11     7      9  0.0952  0.0005  0.0594  0.0201  0.0077 0.00000  3.844  7.692 23.822 19.611  0.0000  0.0000  0.0000
 2002 294    12     8      9  0.0632  0.0001  0.0398  0.0151  0.0022 0.00000  3.840  7.679 12.099  9.957  0.0000  0.0000  0.0000
 2002 295    13     9     10  0.1199  0.0002  0.0779  0.0260  0.0044 0.00000  3.830  7.668 16.820 11.858  0.0000  0.0000  0.0000
 2002 296    14    10     11  0.1705  0.0004  0.1111  0.0350  0.0080 0.00000  3.809  7.650 20.614 14.901  0.0000  0.0000  0.0000
 2002 297    15    11     12  0.2521  0.0007  0.1615  0.0495  0.0184 0.00000  3.766  7.605 24.788 21.395  0.0000  0.0000  0.0000
 2002 298    16    12     13  0.1590  0.0007  0.1020  0.0315  0.0116 0.00000  3.728  7.549 21.593 19.164  0.0000  0.0000  0.0000
 2002 299    17    13     15  0.2962  0.0010  0.2093  0.0505  0.0235 0.00000  3.711  7.519 26.091 22.196  0.0000  0.0000  0.0000
 2002 300    18    14     16  0.1571  0.0011  0.0927  0.0322  0.0157 0.00000  3.656  7.438 23.846 21.774  0.0000  0.0000  0.0000
 2002 301    19    15     18  0.2939  0.0011  0.1973  0.0518  0.0248 0.00000  3.635  7.406 25.565 22.313  0.0000  0.0000  0.0000
 2002 302    20    16     19  0.1566  0.0007  0.0933  0.0345  0.0090 0.00000  3.609  7.380 17.235 14.876  0.0000  0.0000  0.0000
 2002 303    21    17     19  0.1316  0.0007  0.0727  0.0343  0.0087 0.00000  3.603  7.329 18.443 14.867  0.0000  0.0000  0.0000
 2002 304    22    18     22  0.3764  0.0009  0.2311  0.0861  0.0210 0.00000  3.621  7.317 21.502 17.569  0.0000  0.0000  0.0000
 2002 305    23    19     24  0.4289  0.0011  0.2676  0.0945  0.0242 0.00000  3.630  7.318 21.636 17.773  0.0000  0.0000  0.0000
 2002 306    24    20     28  0.5243  0.0015  0.3294  0.1106  0.0355 0.00000  3.622  7.325 23.827 20.179  0.0000  0.0000  0.0000
 2002 307    25    21     29  0.1910  0.0011  0.1158  0.0457  0.0131 0.00000  3.612  7.282 16.867 15.544  0.0000  0.0000  0.0000
 2002 308    26    22     30  0.2686  0.0008  0.1661  0.0645  0.0124 0.00000  3.619  7.271 15.211 13.243  0.0000  0.0000  0.0000
 2002 309    27    23     33  0.4485  0.0009  0.2875  0.0990  0.0180 0.00000  3.627  7.306 17.512 13.289  0.0000  0.0000  0.0000
 2002 310    28    24     37  0.5824  0.0012  0.3674  0.1304  0.0272 0.00000  3.638  7.329 19.788 15.243  0.0000  0.0000  0.0000
 2002 311    29    25     42  0.8244  0.0020  0.5161  0.1771  0.0514 0.00000  3.638  7.352 24.037 19.097  0.0000  0.0000  0.0000
 2002 312    30    26     47  0.9678  0.0028  0.6017  0.2033  0.0725 0.00000  3.626  7.363 26.285 21.452  0.0000  0.0000  0.0000
 2002 313    31    27     50  0.5070  0.0025  0.3159  0.1081  0.0373 0.00000  3.603  7.329 19.992 18.452  0.0000  0.0000  0.0000
 2002 314    32    28     54  0.6048  0.0017  0.3813  0.1372  0.0281 0.00000  3.607  7.332 16.726 14.256  0.0000  0.0000  0.0000
 2002 315    33    29     57  0.5099  0.0026  0.3188  0.1068  0.0377 0.00000  3.585  7.303 21.323 17.563  0.0000  0.0000  0.0000
 2002 316    34    30     66  1.4186  0.0031  0.8949  0.3026  0.0857 0.00000  3.592  7.355 24.944 18.677  0.0000  0.0000  0.0000
 2002 317    35    31     76  1.5989  0.0044  0.9842  0.3407  0.1234 0.00000  3.594  7.366 27.936 21.633  0.0000  0.0000  0.0000
 2002 318    36    32     85  1.5934  0.0058  0.9743  0.3332  0.1448 0.00000  3.575  7.351 28.227 23.678  0.0000  0.0000  0.0000
 2002 319    37    33     94  1.4747  0.0061  0.9185  0.3016  0.1242 0.00000  3.548  7.335 24.148 22.214  0.0000  0.0000  0.0000
 2002 320    38    34    107  2.2982  0.0075  1.4134  0.4748  0.2084 0.00000  3.535  7.345 28.677 24.235  0.0000  0.0000  0.0000
 2002 321    39    35    115  1.3547  0.0088  0.8116  0.2885  0.1478 0.00000  3.503  7.278 26.588 23.973  0.0000  0.0000  0.0000
 2002 322    40    36    132  2.8734  0.0093  1.7737  0.6064  0.2507 0.00000  3.496  7.301 27.300 23.932  0.0000  0.0000  0.0000
 2002 323    41    37    147  2.5585  0.0094  1.6475  0.5119  0.2026 0.00000  3.515  7.307 25.989 21.546  0.0000  0.0000  0.0000
 2002 324    42    38    155  1.7079  0.0105  1.0686  0.3642  0.1598 0.00000  3.538  7.241 23.629 21.623  0.0000  0.0000  0.0000
 2002 325    43    39    174  3.3527  0.0095  1.9375  0.8149  0.2153 0.00000  3.552  7.242 22.791 19.638  0.0000  0.0000  0.0000
 2002 326    44    40    200  4.2249  0.0095  2.5939  0.9849  0.2358 0.00000  3.585  7.271 22.804 18.110  0.0000  0.0000  0.0000
 2002 327    45    41    230  5.2204  0.0154  3.1236  1.1723  0.4371 0.00000  3.599  7.269 28.824 23.127  0.0000  0.0000  0.0000
 2002 328    46    42    259  4.8535  0.0212  3.2015  0.9417  0.4964 0.01106  3.662  7.340 28.058 25.585  0.0000  0.0000  0.0000
 2002 329    47    43    277  3.6116  0.0194  2.2018  0.7700  0.3191 0.02038  3.719  7.464 23.837 21.830  0.0000  0.0000  0.0000
 2002 330    48    44    321  7.4093  0.0233  4.4710  1.5947  0.6141 0.06943  3.895  7.954 26.967 23.455  0.0000  0.0000  0.0000
 2002 331    49    45    351  6.0449  0.0291  2.9187  1.4978  0.5779 0.06403  3.937  8.258 27.847 24.012  0.0000  0.0000  0.0000
 2002 332    50    46    374  4.0005  0.0193  2.2096  0.9529  0.2478 0.05754  4.004  8.519 18.431 16.925  0.0000  0.0000  0.0000
 2002 333    51    47    402  4.9772  0.0282  2.8245  1.1134  0.3958 0.08880  4.111  8.875 22.693 20.292  0.0000  0.0000  0.0000
 2002 334    52    48    469 10.5491  0.0000  5.8693  1.6492  0.9208 1.19596  6.065 14.440 27.443 24.110  0.0000  0.0000  0.0000
 2002 335    53    49    495  5.0092  0.0472  3.0171  1.0637  0.3671 0.12908  6.078 14.413 19.568 18.421  0.0000  0.0000  0.0000
 2002 336    54    50    574 12.9649  0.0540  7.7164  2.8125  0.7727 0.37061  6.197 14.664 22.793 19.316  0.0000  0.0000  0.0000
 2002 337    55    51    656 12.8632  0.0000  7.2777  2.0058  0.9173 1.50422  7.634 18.600 25.026 20.832  0.0000  0.0000  0.0000
 2002 338    56    52    690  7.3844  0.0000  4.4540  1.2031  0.5790 0.53999  7.985 19.458 20.570 19.423  0.0000  0.0000  0.0000
 2002 339    57    53    763 12.7497  0.0000  6.2773  1.5260  1.2060 2.65685 10.172 25.263 26.740 23.908  0.0000  0.0000  0.0000
 2002 340    58    54    813  9.1372  0.1851  5.2368  1.8298  0.9318 0.38767  9.962 24.596 24.996 22.845  0.0000  0.0000  0.0000
 2002 341    59    55    883 12.3330  0.1580  6.4877  2.7701  0.9143 0.51770  9.683 23.978 23.328 19.922  0.0000  0.0000  0.0000
 2002 342    60    56    955 15.3201  0.1326  5.0938  4.5268  0.8524 0.42139  9.214 23.367 21.115 17.136  0.0000  0.0000  0.0000
 2002 343    61    57   1046 20.3467  0.1855  9.4197  4.9747  1.4069 0.83510  9.263 23.132 23.757 20.424  0.0000  0.0000  0.0000
 2002 344    62    58   1102 12.7125  0.1903  6.1924  3.0342  0.9847 0.56661  9.286 22.968 21.992 19.555  0.0000  0.0000  0.0000
 2002 345    63    59   1224 22.9181  0.2583 11.9019  5.0869  1.9847 1.17606  9.299 22.829 26.399 23.174  0.0000  0.0000  0.0000
 2002 346    64    60   1338 21.6466  0.2573 11.1067  5.0589  1.7189 1.14647  9.330 22.786 24.613 21.424  0.0000  0.0000  0.0000
 2002 347    65    61   1435 19.0054  0.2760  9.5491  4.5072  1.5795 1.01482  9.356 22.758 23.934 21.067  0.0000  0.0000  0.0000
 2002 348    66    62   1548 22.0091  0.3565 11.1104  5.0032  2.2579 1.25755  9.398 22.770 27.728 24.037  0.0000  0.0000  0.0000
 2002 349    67    63   1665 22.3176  0.4010 11.7976  4.7261  2.4687 1.37995  9.486 22.849 28.295 24.784  0.0000  0.0000  0.0000
 2002 350    68    64   1825 27.4089  0.4148 16.0666  5.1418  2.6536 1.98243  9.705 23.156 26.756 23.674  0.0000  0.0000  0.0000
 2002 351    69    65   1989 26.5941  0.4108 15.9697  4.9155  2.3316 1.99601  9.866 23.441 25.150 21.782  0.0000  0.0000  0.0000
 2002 352    70    66   2179 29.9409  0.4269 18.0769  5.4982  2.4746 2.36004 10.047 23.801 25.998 20.875  0.0000  0.0000  0.0000
 2002 353    71    67   2226 11.7053  0.3945  4.7366  3.2922  1.2554 0.28695  9.882 23.556 20.469 18.498  0.0000  0.0000  0.0000
 2002 354    72    68   2376 26.3969  0.4725 15.1078  5.0553  2.2914 1.95621 10.067 23.847 23.830 20.677  0.0000  0.0000  0.0000
 2002 355    73    69   2567 31.0290  0.5103 18.3528  5.5815  2.6428 2.57201 10.260 24.237 25.359 20.665  0.0000  0.0000  0.0000
 2002 356    74    70   2630 15.2236  0.6867  8.7469  2.6384  2.4264 0.90410 10.259 24.134 27.531 23.840  0.0000  0.0000  0.0000
 2002 357    75    71   2689 11.8225  0.3352  6.4339  2.4918  1.0143 0.55217 10.261 24.109 17.409 15.009  0.0000  0.0000  0.0000
 2002 358    76    72   2831 24.6797  0.4474 13.7564  4.7561  1.8512 1.91276 10.399 24.392 21.657 17.501  0.0000  0.0000  0.0000
 2002 359    77    73   3035 32.5552  0.0000 15.9130  4.6010  2.7650 5.81917 11.430 26.998 25.205 19.830  0.0000  0.0000  0.0000
 2002 360    78    74   3233 32.9285  0.0000 15.9242  4.7652  3.6619 5.42226 12.298 29.089 28.171 22.975  0.0000  0.0000  0.0000
 2002 361    79    75   3422 33.0159  0.0000 15.6822  4.6583  4.7029 4.92197 13.011 30.732 31.817 25.941  0.0000  0.0000  0.0000
 2002 362    80    76   3471 15.3303  1.2144  8.5049  2.9019  2.9872 0.58987 12.915 30.379 26.428 24.349  0.0000  0.0000  0.0000
 2002 363    81    77   3520 15.3130  1.2624  8.2097  2.9945  3.1323 0.47657 12.810 30.004 27.574 24.815  6.4416 20.5000 30.7399
 2002 364    82    78   3617 22.1459  1.1976 12.1850  4.1567  3.3211 1.38389 12.776 29.789 26.933 23.529  6.3700 20.4993 31.1882
 2002 365    83    79   3673 17.4491  1.1026  9.4758  3.6584  2.6040 0.53473 12.706 29.501 23.833 21.503  6.2865 20.3242 31.8854
 2003 001    84    80   3794 25.4125  0.0000 12.9235  4.3493  3.2679 2.18379 13.055 30.184 25.072 22.312  6.2655 20.3434 31.9972
 2003 002    85    81   3938 28.2608  0.0000 12.9820  4.4650  3.3797 4.35726 13.763 31.802 24.951 21.868  6.2480 20.3118 32.1385
 2003 003    86    82   3988 16.2233  1.3273  9.1325  3.5291  2.6657 0.08111 13.640 31.400 24.083 21.359  6.2325 20.2455 32.3015
 2003 004    87    83   4140 32.3091  0.0000 13.7412  4.6464  4.4205 6.10386 14.603 33.631 28.100 24.085  6.2717 20.3146 31.9870
 2003 005    88    84   4281 31.4100  0.0000 14.3610  4.9190  4.4856 4.34218 15.248 34.992 29.302 23.961  6.2970 20.3641 31.7798
 2003 006    89    85   4418 32.3260  0.3268 16.8137  5.9340  3.8889 2.39511 15.487 35.320 25.764 21.928  6.2773 20.3411 31.9257
 2003 007    90    86   4551 32.4115  1.8100 18.0233  6.4150  4.1721 2.08383 15.418 35.008 27.684 22.307  6.2686 20.3466 31.9744
 2003 008    91    87   4674 31.7127  1.8931 17.5683  6.4090  4.3824 1.74248 15.319 34.650 28.474 22.810  6.2696 20.3693 31.9457
 2003 009    92    88   4769 29.2506  2.1539 15.0858  6.4454  4.9002 0.70994 15.139 34.126 28.626 24.969  6.3098 20.3976 31.6659
 2003 010    93    89   4804 17.8475  2.1477  9.7644  3.8866  3.9407 0.00000 14.925 33.530 26.855 24.346  6.3275 20.4177 31.5353
 2003 011    94    90   4876 27.9182  2.0549 14.1490  6.5093  4.5559 0.13424 14.728 32.967 28.324 23.880  6.3329 20.4318 31.4873
 2003 012    95    91   4992 31.6800  1.9825 16.2735  7.3005  4.5969 0.68584 14.568 32.491 28.032 23.086  6.3264 20.4390 31.5210
 2003 013    96    92   5107 31.2579  1.8688 16.3043  7.2630  4.1656 0.72943 14.426 32.060 27.304 21.497  6.3091 20.3981 31.6702
 2003 014    97    93   5193 31.0107  2.0539 15.5117  7.2814  4.9593 0.42295 14.243 31.533 29.163 23.787  6.3147 20.4118 31.6212
 2003 015    98    94   5263 29.2919  2.1660 14.5455  6.9587  5.3902 0.00000 14.018 30.906 29.931 25.272  6.3373 20.4237 31.4681
 2003 016    99    95   5334 29.3258  2.2069 14.2928  6.9812  5.7104 0.00000 13.785 30.256 30.219 26.062  6.3657 20.4338 31.2806
 2003 017   100    96   5402 28.9024  2.1958 14.0009  6.7914  6.0960 0.00000 13.550 29.598 31.815 26.870  6.3971 20.4419 31.0760
 2003 018   101    97   5447 29.2405  1.9466 14.7113  7.3284  4.4390 0.00000 13.346 29.011 26.250 22.451  6.3786 20.4356 31.1983
 2003 019   102    98   5497 27.5726  1.9338 13.6651  6.8328  4.8749 0.00000 13.138 28.414 29.569 23.478  6.3718 20.4433 31.2331
 2003 020   103    99   5546 24.2154  1.9946 12.2867  6.0269  4.6021 0.00000 12.921 27.787 26.687 23.785  6.3690 20.4506 31.2430
 2003 021   104   100   5615 28.4529  1.9360 13.9424  6.9421  4.9859 0.00000 12.710 27.167 28.279 23.800  6.3670 20.4565 31.2498
 2003 022   105   101   5625 20.1226  2.0019 10.2115  4.9512  4.9533 0.00000 12.486 26.515 29.051 25.289  6.3800 20.4613 31.1639
 2003 023   106   102   5691 27.5550  1.7705 13.6581  7.2756  4.3167 0.00000 12.295 25.927 25.355 22.131  6.3633 20.4461 31.2830
 2003 024   107   103   5763 27.9044  1.5843 14.1855  7.3779  3.7621 0.00000 12.124 25.393 25.627 19.752  6.3453 20.3402 31.5015
 2003 025   108   104   5818 26.3909  1.7624 13.0996  6.8752  4.7372 0.00000 11.923 24.784 27.852 23.088  6.3400 20.3539 31.5209
 2003 026   109   105   5879 27.2962  1.6862 13.4043  7.2040  4.6759 0.00000 11.728 24.189 27.983 22.538  6.3319 20.3589 31.5666
 2003 027   110   106   5933 25.8635  1.6260 12.7378  6.8936  4.5114 0.00000 11.536 23.604 27.938 22.136  6.3228 20.3560 31.6265
 2003 028   111   107   5994 26.5741  1.6592 12.6952  7.0278  5.1857 0.00000 11.334 22.991 29.560 23.830  6.3256 20.3688 31.5961
 2003 029   112   108   6019 25.8129  1.6837 12.0894  6.8078  5.6208 0.00000 11.122 22.353 30.077 25.171  6.3382 20.3800 31.5062
 2003 030   113   109   6068 26.5816  1.6669 11.8089  6.8986  6.6008 0.00246 10.901 21.699 32.949 27.220  6.3636 20.3897 31.3378
 2003 031   114   110   6114 25.2443  1.2829 10.9250  6.3431  6.9539 0.10622 10.774 21.249 33.943 28.214  6.4063 20.3643 31.0966
 2003 032   115   111   6148 20.9085  1.4312  9.7156  5.1771  5.8361 0.05144 10.599 20.690 30.544 26.606  6.4293 20.3482 30.9686
 2003 033   116   112   6200 23.6236  1.2245 10.1722  5.7597  6.7005 0.09614 10.464 20.232 33.602 27.803  6.4609 20.3249 30.7944
 2003 034   117   113   6210 14.0976  1.4276  6.8235  2.9722  5.1721 0.02029 10.256 19.623 30.379 26.048  6.4685 20.3229 30.7493
 2003 035   118   114   6221 13.0924  1.4020  6.4870  2.7295  4.7844 0.01023 10.037 19.003 29.245 25.344  6.4712 20.3248 30.7305
 2003 036   119   115   6231 10.6437  1.2946  5.7843  2.1505  3.6020 0.00000  9.823 18.409 24.113 22.396  6.4645 20.3264 30.7705
 2003 037   120   116   6281 20.2524  1.3404  9.2116  4.6429  5.6869 0.00687  9.589 17.783 31.134 26.483  6.4714 20.3317 30.7221
 2003 038   121   117   6308 14.0630  1.2792  6.8637  3.0203  4.3741 0.00353  9.354 17.168 26.892 24.388  6.4698 20.3359 30.7278
 2003 039   122   118   6347 16.7410  1.2355  7.7075  4.0471  4.9164 0.01134  9.118 16.565 28.701 25.481  6.4728 20.3377 30.7071
 2003 040   123   119   6376 15.2164  1.1158  6.7283  3.5596  4.9161 0.03983  8.909 16.029 28.827 25.930  6.4815 20.3288 30.6619
 2003 041   124   120   6403 14.0984  1.1004  6.3443  3.1894  4.5205 0.02687  8.685 15.479 27.938 25.077  6.4854 20.3246 30.6418
 2003 042   125   121   6411 10.0626  1.0579  4.7688  2.0574  3.7121 0.01460  8.456 14.931 25.611 23.430  6.4844 20.3233 30.6495
 2003 043   126   122   6457 17.1345  0.9845  7.5641  4.0688  4.4127 0.03382  8.241 14.426 27.201 24.270  6.4867 20.3180 30.6399
 2003 044   127   123   6503 16.6582  1.0346  7.5437  3.5229  4.1751 0.00000  7.991 13.859 27.487 23.555  6.4499 20.3898 30.7985
 2003 045   128   124   6370 15.9939  0.9841  7.1783  3.4370  4.2163 0.00000  7.643 12.810 28.331 23.793  6.4015 20.4869 31.0036
 2003 046   129   125   6251 11.6153  0.8416  4.8815  2.5576  4.0563 0.00000  7.303 11.875 29.744 24.528  6.3928 20.5056 31.0391
 2003 047   130   126   6153  7.5012  0.6129  3.6710  1.8665  2.0810 0.00000  7.025 11.122 20.941 17.905  6.3906 20.4713 31.0875
 2003 048   131   127   6078  7.8873  0.5609  3.5853  1.8017  2.4267 0.00000  6.743 10.436 25.007 19.257  6.3878 20.4524 31.1236
 2003 049   132   128   6012  6.0757  0.5184  2.5162  1.1057  2.6441 0.00000  6.458  9.805 27.035 20.893  6.3860 20.4475 31.1400
 2003 050   133   129   5941  2.1551  0.4089  0.8633  0.2476  1.5433 0.00000  6.208  9.284 19.488 16.596  6.3858 20.4359 31.1531
 2003 051   134   130   5893  2.6769  0.3727  1.2109  0.3721  1.5655 0.00000  5.972  8.813 20.213 16.680  6.3854 20.4200 31.1711
 2003 052   135   131   5852  2.1614  0.3384  0.7876  0.2259  1.5719 0.00000  5.741  8.388 22.174 16.429  6.3853 20.4090 31.1831
 2003 053   136   132   5804  1.1733  0.3300  0.0000  0.0000  1.6824 0.00000  5.492  7.983 21.269 18.130  6.3853 20.4090 31.1831
 2003 054   137   133   5742  0.5850  0.3042  0.0000  0.0000  1.5786 0.00000  5.255  7.613 19.850 17.853  6.3853 20.4090 31.1831
 2003 055   138   134   5707  1.0345  0.3272  0.0000  0.0000  2.3892 0.00000  4.994  7.229 25.621 22.625  6.3853 20.4090 31.1831
 2003 056   139   135   5683  1.0850  0.3036  0.0000  0.0000  2.5055 0.00000  4.746  6.874 28.431 22.905  6.3853 20.4090 31.1831

*DSSAT Cropping System Model Ver. 4.6.1.000 -release      OCT 17, 2016; 12:55:38
                                                                                
*RUN   4        : UYSB                      CRGRO046 UYSB0886    1              
 MODEL          : CRGRO046 - Soybean                                            
 EXPERIMENT     : UYSB0886 SN late to create DSS                                
 DATA PATH      :                                                               
 TREATMENT  1   : UYSB                      CRGRO046                            
  
@YEAR DOY   DAS   DAP   TWAD    PHAD    CMAD    CGRD    GRAD    MRAD    CHAD   CL%D   CS%D   TGNN   TGAV    GN%D    GL%D    GC%D
 2003 286     4     0      0  0.0000  0.0000  0.0000  0.0000  0.0000 0.00000  0.000  0.000 17.658 12.030  0.0000  0.0000  0.0000
 2003 287     5     1      0  0.0000  0.0000  0.0000  0.0000  0.0000 0.00000  0.000  0.000 22.213 16.227  0.0000  0.0000  0.0000
 2003 288     6     2      0  0.0000  0.0000  0.0000  0.0000  0.0000 0.00000  0.000  0.000 24.160 18.957  0.0000  0.0000  0.0000
 2003 289     7     3      0  0.0000  0.0000  0.0000  0.0000  0.0000 0.00000  0.000  0.000 28.033 21.581  0.0000  0.0000  0.0000
 2003 290     8     4      0  0.0000  0.0000  0.0000  0.0000  0.0000 0.00000  0.000  0.000 28.168 23.176  0.0000  0.0000  0.0000
 2003 291     9     5      0  0.0000  0.0000  0.0000  0.0000  0.0000 0.00000  0.000  0.000 30.790 25.833  0.0000  0.0000  0.0000
 2003 292    10     6      0  0.0000  0.0000  0.0000  0.0000  0.0000 0.00000  0.000  0.000 22.463 19.074  0.0000  0.0000  0.0000
 2003 293    11     7      8  0.0000  0.0003  0.0002  0.0001  0.0000 0.00000  3.960  7.917 19.678 16.074  0.0000  0.0000  0.0000
 2003 294    12     8      9  0.1565  0.0004  0.0997  0.0341  0.0087 0.00000  3.921  7.844 21.773 17.669  0.0000  0.0000  0.0000
 2003 295    13     9     10  0.1715  0.0004  0.1103  0.0370  0.0089 0.00000  3.890  7.791 21.940 16.550  0.0000  0.0000  0.0000
 2003 296    14    10     11  0.2257  0.0006  0.1449  0.0478  0.0141 0.00000  3.852  7.735 24.784 18.999  0.0000  0.0000  0.0000
 2003 297    15    11     12  0.2297  0.0008  0.1432  0.0474  0.0209 0.00000  3.803  7.655 29.443 23.301  0.0000  0.0000  0.0000
 2003 298    16    12     13  0.1628  0.0009  0.1025  0.0328  0.0150 0.00000  3.751  7.571 24.056 22.020  0.0000  0.0000  0.0000
 2003 299    17    13     15  0.2671  0.0008  0.1726  0.0536  0.0187 0.00000  3.714  7.538 24.246 20.245  0.0000  0.0000  0.0000
 2003 300    18    14     16  0.2213  0.0005  0.1453  0.0464  0.0102 0.00000  3.701  7.530 18.975 14.544  0.0000  0.0000  0.0000
 2003 301    19    15     18  0.2801  0.0007  0.1840  0.0566  0.0150 0.00000  3.682  7.521 21.629 16.340  0.0000  0.0000  0.0000
 2003 302    20    16     20  0.3492  0.0010  0.2280  0.0687  0.0221 0.00000  3.657  7.504 24.119 18.543  0.0000  0.0000  0.0000
 2003 303    21    17     23  0.3898  0.0015  0.2330  0.0877  0.0367 0.00000  3.650  7.429 29.056 23.550  0.0000  0.0000  0.0000
 2003 304    22    18     24  0.1762  0.0009  0.1050  0.0452  0.0118 0.00000  3.647  7.375 18.680 15.676  0.0000  0.0000  0.0000
 2003 305    23    19     25  0.2984  0.0007  0.1842  0.0737  0.0126 0.00000  3.664  7.363 17.079 13.324  0.0000  0.0000  0.0000
 2003 306    24    20     27  0.3154  0.0006  0.1991  0.0737  0.0127 0.00000  3.674  7.368 17.762 12.218  0.0000  0.0000  0.0000
 2003 307    25    21     30  0.3739  0.0008  0.2380  0.0843  0.0160 0.00000  3.678  7.378 18.868 13.073  0.0000  0.0000  0.0000
 2003 308    26    22     32  0.4673  0.0012  0.2964  0.1028  0.0243 0.00000  3.674  7.380 20.549 15.933  0.0000  0.0000  0.0000
 2003 309    27    23     36  0.6268  0.0016  0.3990  0.1339  0.0366 0.00000  3.664  7.392 22.668 17.837  0.0000  0.0000  0.0000
 2003 310    28    24     41  0.7338  0.0022  0.4627  0.1551  0.0509 0.00000  3.647  7.392 24.731 20.043  0.0000  0.0000  0.0000
 2003 311    29    25     46  0.8244  0.0027  0.5076  0.1838  0.0634 0.00000  3.636  7.372 25.951 21.298  0.0000  0.0000  0.0000
 2003 312    30    26     51  0.8648  0.0032  0.5310  0.1897  0.0741 0.00000  3.617  7.350 27.600 22.303  0.0000  0.0000  0.0000
 2003 313    31    27     56  0.8598  0.0039  0.5245  0.1829  0.0842 0.00000  3.586  7.316 27.959 23.806  0.0000  0.0000  0.0000
 2003 314    32    28     64  1.2856  0.0039  0.8007  0.2720  0.1073 0.00000  3.571  7.338 28.213 22.664  0.0000  0.0000  0.0000
 2003 315    33    29     71  1.3498  0.0049  0.8282  0.2806  0.1394 0.00000  3.601  7.310 31.366 25.171  0.0000  0.0000  0.0000
 2003 316    34    30     76  0.7653  0.0033  0.4820  0.1708  0.0496 0.00000  3.599  7.287 19.316 17.060  0.0000  0.0000  0.0000
 2003 317    35    31     83  1.1653  0.0030  0.7191  0.2711  0.0560 0.00000  3.604  7.304 18.352 15.415  0.0000  0.0000  0.0000
 2003 318    36    32     92  1.5004  0.0033  0.9592  0.3256  0.0723 0.00000  3.608  7.346 20.675 15.482  0.0000  0.0000  0.0000
 2003 319    37    33    105  2.0847  0.0058  1.3344  0.4174  0.1507 0.00000  3.627  7.369 26.849 20.545  0.0000  0.0000  0.0000
 2003 320    38    34    109  0.9748  0.0065  0.5730  0.2115  0.0865 0.00000  3.589  7.316 21.316 19.812  0.0000  0.0000  0.0000
 2003 321    39    35    118  1.7457  0.0075  1.2182  0.3101  0.1450 0.00000  3.603  7.301 25.172 21.482  0.0000  0.0000  0.0000
 2003 322    40    36    124  1.0629  0.0048  0.6897  0.2233  0.0648 0.00000  3.613  7.278 17.422 15.667  0.0000  0.0000  0.0000
 2003 323    41    37    140  2.8192  0.0074  1.5868  0.6402  0.1819 0.00000  3.569  7.311 23.886 19.694  0.0000  0.0000  0.0000
 2003 324    42    38    154  2.3379  0.0058  1.4486  0.5103  0.1133 0.00000  3.565  7.333 18.961 15.736  0.0000  0.0000  0.0000
 2003 325    43    39    174  3.2451  0.0081  2.0512  0.6660  0.1879 0.00000  3.557  7.367 23.516 17.818  0.0000  0.0000  0.0000
 2003 326    44    40    195  3.7248  0.0140  2.1783  0.8135  0.3652 0.00000  3.566  7.320 30.701 24.430  0.0000  0.0000  0.0000
 2003 327    45    41    218  4.2317  0.0174  2.5256  0.8911  0.4768 0.00000  3.599  7.267 32.061 26.722  0.0000  0.0000  0.0000
 2003 328    46    42    228  1.8144  0.0113  1.0468  0.4281  0.1367 0.00000  3.578  7.221 18.854 17.420  0.0000  0.0000  0.0000
 2003 329    47    43    260  5.4501  0.0153  3.2980  1.2331  0.3796 0.00000  3.594  7.230 25.665 20.576  0.0000  0.0000  0.0000
 2003 330    48    44    286  4.7952  0.0215  2.9290  1.0158  0.4567 0.00000  3.616  7.188 27.935 23.814  0.0000  0.0000  0.0000
 2003 331    49    45    329  7.5099  0.0231  4.3729  1.6980  0.6264 0.00000  3.613  7.192 27.597 23.368  0.0000  0.0000  0.0000
 2003 332    50    46    365  6.1037  0.0235  3.6605  1.3510  0.4767 0.00987  3.624  7.243 25.765 21.177  0.0000  0.0000  0.0000
 2003 333    51    47    425 10.0025  0.0269  6.0113  2.2048  0.7366 0.04836  3.719  7.531 27.056 21.644  0.0000  0.0000  0.0000
 2003 334    52    48    457  5.7113  0.0277  3.4200  1.2927  0.4169 0.04396  3.766  7.698 21.430 19.387  0.0000  0.0000  0.0000
 2003 335    53    49    529 12.0740  0.0348  7.2225  2.7086  0.8430 0.13262  3.936  8.215 24.764 21.216  0.0000  0.0000  0.0000
 2003 336    54    50    601 11.9437  0.0376  7.0972  2.7181  0.7666 0.16540  4.096  8.709 24.016 19.535  0.0000  0.0000  0.0000
 2003 337    55    51    682 13.8868  0.0527  8.0657  3.1508  1.0818 0.23321  4.271  9.250 27.049 21.851  0.0000  0.0000  0.0000
 2003 338    56    52    746 11.3570  0.0660  6.4406  2.6141  1.0049 0.22477  4.392  9.645 26.335 22.428  0.0000  0.0000  0.0000
 2003 339    57    53    852 17.7116  0.0588 10.3372  4.0392  1.0765 0.41173  4.631 10.351 23.256 19.134  0.0000  0.0000  0.0000
 2003 340    58    54    961 18.1084  0.0615 10.4908  4.2146  1.0128 0.46315  4.845 10.983 23.228 17.421  0.0000  0.0000  0.0000
 2003 341    59    55   1057 16.9545  0.0936  9.5543  3.9325  1.2616 0.47337  5.024 11.478 25.252 20.305  0.0000  0.0000  0.0000
 2003 342    60    56   1127 12.5957  0.0926  7.0508  2.9657  0.9149 0.38319  5.147 11.811 22.502 18.487  0.0000  0.0000  0.0000
 2003 343    61    57   1235 18.3404  0.0860 10.5102  4.2803  1.0029 0.61489  5.350 12.361 20.643 16.736  0.0000  0.0000  0.0000
 2003 344    62    58   1375 23.7422  0.1208 13.7798  5.3586  1.5839 0.87448  5.603 13.026 25.323 18.944  0.0000  0.0000  0.0000
 2003 345    63    59   1488 20.0700  0.1473 10.9797  4.6413  1.4967 0.75448  5.760 13.469 24.798 19.423  0.0000  0.0000  0.0000
 2003 346    64    60   1608 21.3313  0.1315 11.8956  4.9047  1.2762 0.88214  5.948 13.970 22.007 16.918  0.0000  0.0000  0.0000
 2003 347    65    61   1726 21.6694  0.1839 11.7136  5.0713  1.6085 0.93225  6.112 14.404 23.174 19.340  0.0000  0.0000  0.0000
 2003 348    66    62   1879 27.5226  0.2430 15.7226  5.7781  2.3453 1.34132  6.376 15.000 25.928 21.700  0.0000  0.0000  0.0000
 2003 349    67    63   1947 14.3160  0.2347  6.8889  3.5450  1.3903 0.60006  6.392 15.121 22.775 19.479  0.0000  0.0000  0.0000
 2003 350    68    64   2077 22.5396  0.1787 12.5208  5.1088  1.3171 1.15463  6.560 15.574 19.816 16.090  0.0000  0.0000  0.0000
 2003 351    69    65   2231 26.8582  0.2212 15.5134  5.6390  1.7173 1.50557  6.808 16.136 22.238 17.222  0.0000  0.0000  0.0000
 2003 352    70    66   2436 32.1038  0.0000 18.6859  5.3055  2.3527 3.01176  7.434 17.771 24.712 19.087  0.0000  0.0000  0.0000
 2003 353    71    67   2605 27.6944  0.4542 17.1495  4.7378  2.9663 1.80904  7.598 18.126 27.485 22.863  0.0000  0.0000  0.0000
 2003 354    72    68   2707 19.0319  0.4577 10.8440  3.6195  2.2193 1.13805  7.670 18.253 24.190 21.467  0.0000  0.0000  0.0000
 2003 355    73    69   2918 34.0042  0.0000 17.3899  4.5429  3.7851 5.45221  8.735 21.086 28.305 24.005  0.0000  0.0000  0.0000
 2003 356    74    70   3041 21.9656  0.4585 12.5612  4.2366  1.9457 1.38087  8.796 21.174 22.224 18.247  0.0000  0.0000  0.0000
 2003 357    75    71   3234 30.4130  0.0000 16.7762  4.6028  2.2109 3.77088  9.361 22.609 22.232 17.466  0.0000  0.0000  0.0000
 2003 358    76    72   3420 30.8895  0.6023 18.3607  5.3534  2.7281 2.31026  9.468 22.800 24.085 19.463  0.0000  0.0000  0.0000
 2003 359    77    73   3653 38.0275  0.0000 19.2053  5.2330  4.2741 5.96872 10.328 24.973 27.851 23.408  0.0000  0.0000  0.0000
 2003 360    78    74   3866 35.8666  0.9397 21.4227  6.2071  4.1371 2.75440 10.376 24.981 27.790 22.917  0.0000  0.0000  0.0000
 2003 361    79    75   3946 18.0373  0.9832 10.4435  3.1424  2.9913 1.06569 10.341 24.799 25.555 22.474  0.0000  0.0000  0.0000
 2003 362    80    76   4090 26.3477  0.7820 15.0405  4.9187  2.6527 1.75353 10.369 24.790 21.741 19.161  0.0000  0.0000  0.0000
 2003 363    81    77   4272 31.6015  0.6662 17.8928  6.0820  2.5274 2.35608 10.444 24.909 22.108 17.019  0.0000  0.0000  0.0000
 2003 364    82    78   4502 37.8981  0.0000 19.0632  5.6381  3.7395 5.70770 11.098 26.526 26.120 19.992  0.0000  0.0000  0.0000
 2003 365    83    79   4686 33.2903  0.8902 18.4039  6.5786  2.9907 2.47675 11.143 26.554 21.686 18.425  0.0000  0.0000  0.0000
 2004 001    84    80   4906 37.0234  0.0000 20.4281  6.1767  3.3903 3.30452 11.389 27.060 24.903 18.201  0.0000  0.0000  0.0000
 2004 002    85    81   5130 39.5188  1.0410 22.0712  7.4826  3.7822 3.19217 11.453 27.133 25.128 19.035  0.0000  0.0000  0.0000
 2004 003    86    82   5356 41.0535  1.3230 23.0439  7.4087  4.9156 3.21083 11.498 27.155 27.646 21.875  0.0000  0.0000  0.0000
 2004 004    87    83   5529 35.6283  1.5488 18.9225  6.4326  5.4637 2.60827 11.504 27.080 29.025 24.007  0.0000  0.0000  0.0000
 2004 005    88    84   5696 37.2637  1.8323 19.7602  6.3711  6.6751 2.84717 11.508 26.991 30.851 26.442  0.0000  0.0000  0.0000
 2004 006    89    85   5840 39.4104  1.8563 19.6983  7.1404  6.9129 2.76892 11.499 26.895 31.646 26.162  6.5607 20.5000 29.9954
 2004 007    90    86   5964 33.0118  1.9362 16.3632  6.2967  6.3628 1.72370 11.451 26.683 30.919 25.900  6.5416 20.5000 30.1148
 2004 008    91    87   6118 40.2929  2.0113 20.4410  7.5201  6.7142 2.62900 11.437 26.576 29.420 25.477  6.5210 20.5000 30.2438
 2004 009    92    88   6255 38.6152  2.1158 18.9328  7.4935  6.8461 2.21211 11.400 26.410 29.658 25.823  6.5254 20.5000 30.2164
 2004 010    93    89   6367 36.1716  2.1726 17.8288  7.2013  6.6796 1.67968 11.344 26.183 29.470 25.670  6.5223 20.5000 30.2356
 2004 011    94    90   6496 39.7286  2.0693 20.2184  8.2073  5.9436 1.86285 11.313 26.017 25.981 23.544  6.4568 20.4997 30.6456
 2004 012    95    91   6587 32.4848  2.0444 16.8144  6.9160  5.2961 0.78563 11.224 25.708 26.068 22.807  6.3995 20.4831 31.0201
 2004 013    96    92   6716 36.2217  2.0286 18.2921  7.9556  5.4330 1.09977 11.155 25.455 26.249 22.414  6.3576 20.4560 31.3090
 2004 014    97    93   6851 39.9018  2.1469 20.4311  8.3727  6.1506 1.44491 11.098 25.234 27.584 23.319  6.3469 20.4642 31.3680
 2004 015    98    94   6955 34.8948  2.0026 18.1509  7.8212  5.0536 0.63301 11.004 24.922 25.231 21.360  6.3153 20.3871 31.6423
 2004 016    99    95   7086 39.0951  1.9124 20.4030  8.7335  4.9515 1.08903 10.947 24.704 25.146 20.272  6.2885 20.2416 31.9551
 2004 017   100    96   7117 25.0830  2.1536 13.7354  5.4105  5.0275 0.00000 10.800 24.259 26.779 22.264  6.2792 20.2630 31.9918
 2004 018   101    97   7168 24.0256  2.2206 12.5806  5.3128  5.1825 0.00000 10.647 23.793 26.110 22.992  6.2805 20.3022 31.9448
 2004 019   102    98   7232 25.7729  2.0151 13.6681  6.0015  4.4962 0.00000 10.512 23.368 22.887 21.024  6.2650 20.2472 32.0967
 2004 020   103    99   7283 29.0763  2.2258 15.0089  6.5335  5.6939 0.00000 10.357 22.893 27.044 23.246  6.2710 20.2838 32.0222
 2004 021   104   100   7376 36.7589  2.2644 18.3134  8.6226  6.5195 0.00000 10.197 22.402 27.668 23.942  6.2852 20.3164 31.9013
 2004 022   105   101   7461 36.1006  2.3017 17.8498  8.2647  6.9023 0.00000 10.030 21.897 28.524 24.690  6.3060 20.3427 31.7450
 2004 023   106   102   7529 34.5013  2.2544 17.1550  8.1036  6.5567 0.00000  9.866 21.398 27.717 24.134  6.3165 20.3647 31.6570
 2004 024   107   103   7604 35.9410  2.2308 17.4551  8.5083  6.9205 0.00000  9.701 20.898 28.823 24.488  6.3296 20.3831 31.5566
 2004 025   108   104   7693 36.6240  2.0792 18.0977  8.9260  6.2471 0.00000  9.547 20.427 27.841 22.790  6.3219 20.3912 31.5966
 2004 026   109   105   7775 36.8846  2.0317 18.0493  8.9072  6.5648 0.00000  9.396 19.961 29.479 22.996  6.3176 20.4005 31.6146
 2004 027   110   106   7861 36.8317  2.0109 18.2012  9.1059  6.3462 0.00000  9.244 19.495 28.366 22.635  6.3107 20.4032 31.6549
 2004 028   111   107   7895 26.0448  2.0843 13.0756  6.2645  6.0733 0.00000  9.084 19.005 28.006 23.673  6.3144 20.4150 31.6202
 2004 029   112   108   7933 36.0620  2.1472 16.8535  8.6807  8.1270 0.00000  8.917 18.490 31.235 26.222  6.3424 20.4245 31.4354
 2004 030   113   109   8003 35.3716  2.0811 16.1762  8.3625  8.8423 0.04227  8.749 17.987 33.552 27.321  6.3766 20.4326 31.2135
 2004 031   114   110   8029 26.0763  1.9364 12.1410  6.0748  8.1662 0.05224  8.605 17.524 32.639 27.662  6.4261 20.4051 30.9316
 2004 032   115   111   8090 32.3020  2.0113 15.2449  8.1482  7.4439 0.00000  8.442 17.010 28.884 25.555  6.4350 20.4155 30.8658
 2004 033   116   112   8152 30.7031  1.5926 15.0427  7.9421  6.4305 0.08005  8.338 16.629 27.468 23.602  6.4451 20.3820 30.8360
 2004 034   117   113   8146 15.0068  1.6675  8.8781  3.0602  4.5064 0.00434  8.204 16.188 22.473 21.399  6.4322 20.3648 30.9339
 2004 035   118   114   8208 28.6001  1.5851 13.8430  6.8849  6.9300 0.07156  8.089 15.786 28.745 24.844  6.4490 20.3432 30.8505
 2004 036   119   115   8292 31.9408  1.3376 15.3471  8.1517  6.3121 0.11463  8.009 15.463 26.055 23.193  6.4599 20.3070 30.8185
 2004 037   120   116   8373 31.5643  1.2573 15.4438  8.6410  5.5348 0.09768  7.926 15.148 25.435 21.285  6.4579 20.2517 30.8864
 2004 038   121   117   8446 29.1735  1.1694 14.0960  7.8002  5.4772 0.11585  7.852 14.859 25.857 21.278  6.4610 20.1984 30.9205
 2004 039   122   118   8532 30.1952  1.2524 14.3892  8.0782  5.9158 0.09623  7.757 14.530 26.539 22.175  6.4625 20.1745 30.9350
 2004 040   123   119   8611 28.0196  1.2024 13.1571  7.3172  5.9258 0.10522  7.663 14.213 27.330 22.466  6.4673 20.1529 30.9268
 2004 041   124   120   8687 28.0542  1.2495 12.8935  7.2522  6.4002 0.09700  7.554 13.871 28.226 23.613  6.4748 20.1410 30.8912
 2004 042   125   121   8760 27.3416  1.1997 12.4283  7.0639  6.2972 0.10019  7.444 13.539 28.474 23.505  6.4820 20.1287 30.8591
 2004 043   126   122   8818 25.1694  1.3405 10.9937  6.1099  7.3162 0.06977  7.299 13.142 31.109 25.997  6.4939 20.1240 30.7892
 2004 044   127   123   8815 11.4233  1.4009  6.1001  2.1766  4.3843 0.00000  7.120 12.686 22.916 21.737  6.4879 20.1261 30.8246
 2004 045   128   124   8865 18.7748  1.1231  9.1758  4.7687  4.2027 0.05095  6.985 12.337 23.755 20.003  6.4846 20.0930 30.8779
 2004 046   129   125   8939 23.8544  0.9114 11.1264  6.5630  4.3134 0.09923  6.887 12.075 25.023 19.271  6.4858 20.0299 30.9337
 2004 047   130   126   8996 21.2020  1.1160  9.7373  5.5632  4.9321 0.05455  6.740 11.719 26.848 21.419  6.4835 20.0194 30.9586
 2004 048   131   127   9042 18.2668  1.0233  8.3523  4.6598  4.4887 0.07108  6.606 11.397 24.824 21.039  6.4842 20.0015 30.9724
 2004 049   132   128   9089 16.8913  1.0099  8.0773  4.6097  3.7018 0.04313  6.460 11.062 23.336 18.872  6.4819 19.9615 31.0265
 2004 050   133   129   9162 19.1429  0.0000  8.3695  2.8692  4.0857 1.37135  6.698 11.654 24.229 19.767  6.4019 20.0963 31.3920
 2004 051   134   130   8926 15.2871  0.0000  7.4390  2.5267  2.8790 0.73600  6.825 11.491 21.282 16.250  6.3346 20.1525 31.7562
 2004 052   135   131   8734 13.6142  0.7120  6.9274  2.5782  3.0874 0.09867  6.671 10.847 22.660 17.593  6.2807 20.2126 32.0328
 2004 053   136   132   8571 10.1759  0.9082  5.1187  1.9618  2.9118 0.00000  6.414 10.115 23.047 17.731  6.2474 20.2464 32.2071
 2004 054   137   133   8439  9.5697  0.8546  4.3412  1.6754  3.4122 0.00000  6.144  9.440 24.812 20.140  6.2221 20.2889 32.3232
 2004 055   138   134   8317  6.9108  0.7783  2.7690  1.2150  3.4721 0.00000  5.874  8.827 25.209 21.251  6.2219 20.2872 32.3261
 2004 056   139   135   8213  5.6631  0.7031  2.0125  0.7156  3.5550 0.00000  5.609  8.275 26.860 21.869  6.2219 20.2871 32.3263
 2004 057   140   136   8123  4.1264  0.6320  0.9097  0.2610  3.6178 0.00000  5.348  7.780 28.615 22.378  6.2219 20.2873 32.3257
 2004 058   141   137   8043  3.1223  0.5788  0.0000  0.0000  3.7746 0.00000  5.087  7.331 30.182 23.199  6.2219 20.2873 32.3257
 2004 059   142   138   7977  2.3700  0.5200  0.0000  0.0000  3.0582 0.00000  4.842  6.930 25.645 21.371  6.2219 20.2873 32.3257
 2004 060   143   139   7921  1.9054  0.4720  0.0000  0.0000  2.8536 0.00000  4.613  6.568 24.901 20.770  6.2219 20.2873 32.3257
 2004 061   144   140   7874  1.7108  0.4462  0.0000  0.0000  2.9703 0.00000  4.390  6.232 25.838 21.353  6.2219 20.2873 32.3257
 2004 062   145   141   7827  0.9010  0.3992  0.0000  0.0000  2.5359 0.00000  4.186  5.932 23.368 19.881  6.2219 20.2873 32.3257

*DSSAT Cropping System Model Ver. 4.6.1.000 -release      OCT 17, 2016; 12:55:38
                                                                                
*RUN   5        : UYSB                      CRGRO046 UYSB0886    1              
 MODEL          : CRGRO046 - Soybean                                            
 EXPERIMENT     : UYSB0886 SN late to create DSS                                
 DATA PATH      :                                                               
 TREATMENT  1   : UYSB                      CRGRO046                            
  
@YEAR DOY   DAS   DAP   TWAD    PHAD    CMAD    CGRD    GRAD    MRAD    CHAD   CL%D   CS%D   TGNN   TGAV    GN%D    GL%D    GC%D
 2004 286     4     0      0  0.0000  0.0000  0.0000  0.0000  0.0000 0.00000  0.000  0.000 16.235 14.704  0.0000  0.0000  0.0000
 2004 287     5     1      0  0.0000  0.0000  0.0000  0.0000  0.0000 0.00000  0.000  0.000 17.783 13.579  0.0000  0.0000  0.0000
 2004 288     6     2      0  0.0000  0.0000  0.0000  0.0000  0.0000 0.00000  0.000  0.000 19.530 13.792  0.0000  0.0000  0.0000
 2004 289     7     3      0  0.0000  0.0000  0.0000  0.0000  0.0000 0.00000  0.000  0.000 25.340 19.137  0.0000  0.0000  0.0000
 2004 290     8     4      0  0.0000  0.0000  0.0000  0.0000  0.0000 0.00000  0.000  0.000 21.210 18.892  0.0000  0.0000  0.0000
 2004 291     9     5      0  0.0000  0.0000  0.0000  0.0000  0.0000 0.00000  0.000  0.000 23.060 18.031  0.0000  0.0000  0.0000
 2004 292    10     6      0  0.0000  0.0000  0.0000  0.0000  0.0000 0.00000  0.000  0.000 20.452 16.563  0.0000  0.0000  0.0000
 2004 293    11     7      8  0.0000  0.0003  0.0002  0.0001  0.0000 0.00000  3.969  7.935 18.950 14.098  0.0000  0.0000  0.0000
 2004 294    12     8      8  0.1111  0.0002  0.0712  0.0246  0.0045 0.00000  3.946  7.890 18.487 12.991  0.0000  0.0000  0.0000
 2004 295    13     9      9  0.1621  0.0004  0.1042  0.0347  0.0082 0.00000  3.915  7.834 22.041 15.936  0.0000  0.0000  0.0000
 2004 296    14    10     11  0.2182  0.0006  0.1386  0.0453  0.0151 0.00000  3.870  7.760 26.154 20.298  0.0000  0.0000  0.0000
 2004 297    15    11     11  0.1204  0.0005  0.0768  0.0264  0.0072 0.00000  3.839  7.701 18.593 16.415  0.0000  0.0000  0.0000
 2004 298    16    12     12  0.1562  0.0004  0.1007  0.0342  0.0073 0.00000  3.819  7.668 18.037 14.751  0.0000  0.0000  0.0000
 2004 299    17    13     14  0.1939  0.0005  0.1263  0.0404  0.0097 0.00000  3.796  7.639 20.195 15.587  0.0000  0.0000  0.0000
 2004 300    18    14     15  0.1953  0.0006  0.1268  0.0397  0.0114 0.00000  3.767  7.602 21.487 16.841  0.0000  0.0000  0.0000
 2004 301    19    15     16  0.1549  0.0003  0.1019  0.0325  0.0060 0.00000  3.758  7.595 16.656 11.188  0.0000  0.0000  0.0000
 2004 302    20    16     17  0.2602  0.0006  0.1711  0.0515  0.0137 0.00000  3.738  7.582 22.688 15.324  0.0000  0.0000  0.0000
 2004 303    21    17     19  0.3167  0.0011  0.2029  0.0612  0.0249 0.00000  3.701  7.537 27.304 20.690  0.0000  0.0000  0.0000
 2004 304    22    18     20  0.1364  0.0010  0.0866  0.0276  0.0114 0.00000  3.667  7.475 19.374 17.586  0.0000  0.0000  0.0000
 2004 305    23    19     22  0.3145  0.0011  0.2050  0.0611  0.0213 0.00000  3.636  7.449 22.821 18.923  0.0000  0.0000  0.0000
 2004 306    24    20     25  0.4111  0.0013  0.2549  0.0905  0.0284 0.00000  3.637  7.412 24.849 19.519  0.0000  0.0000  0.0000
 2004 307    25    21     27  0.4714  0.0015  0.2868  0.1080  0.0359 0.00000  3.643  7.372 27.393 20.417  0.0000  0.0000  0.0000
 2004 308    26    22     29  0.2267  0.0015  0.1370  0.0501  0.0205 0.00000  3.617  7.305 21.525 19.342  0.0000  0.0000  0.0000
 2004 309    27    23     30  0.2525  0.0016  0.1764  0.0463  0.0218 0.00000  3.627  7.252 21.399 19.144  0.0000  0.0000  0.0000
 2004 310    28    24     31  0.2168  0.0009  0.1293  0.0509  0.0121 0.00000  3.623  7.233 17.002 13.495  0.0000  0.0000  0.0000
 2004 311    29    25     34  0.3869  0.0007  0.2461  0.0855  0.0147 0.00000  3.632  7.263 16.593 12.048  0.0000  0.0000  0.0000
 2004 312    30    26     37  0.5071  0.0010  0.3275  0.1065  0.0216 0.00000  3.635  7.304 19.073 13.453  0.0000  0.0000  0.0000
 2004 313    31    27     41  0.6088  0.0018  0.4008  0.1237  0.0376 0.00000  3.660  7.306 23.034 17.808  0.0000  0.0000  0.0000
 2004 314    32    28     42  0.3368  0.0020  0.1987  0.0765  0.0264 0.00000  3.633  7.257 19.034 17.853  0.0000  0.0000  0.0000
[...]
 2010 057   140   136   5753  2.0948  0.2726  0.5181  0.1486  1.7377 0.00000  4.729  5.926 21.542 18.157  6.3702 20.3902 31.2960
 2010 058   141   137   5716  1.8049  0.2692  0.0000  0.0000  2.1155 0.00000  4.506  5.590 24.022 20.601  6.3702 20.3902 31.2960
 2010 059   142   138   5685  1.4075  0.2597  0.0000  0.0000  2.3464 0.00000  4.283  5.275 25.048 22.163  6.3702 20.3902 31.2960
 2010 060   143   139   5659  1.2081  0.2479  0.0000  0.0000  3.4949 0.00000  4.064  4.982 34.611 27.062  6.3702 20.3902 31.2960
 2010 061   144   140   5637  0.8780  0.2270  0.0000  0.0000  2.4725 0.00000  3.860  4.716 27.560 22.897  6.3702 20.3902 31.2960

*DSSAT Cropping System Model Ver. 4.6.1.000 -release      OCT 17, 2016; 12:55:38
                                                                                
*RUN  11        : UYSB                      CRGRO046 UYSB0886    1              
 MODEL          : CRGRO046 - Soybean                                            
 EXPERIMENT     : UYSB0886 SN late to create DSS                                
 DATA PATH      :                                                               
 TREATMENT  1   : UYSB                      CRGRO046                            
  
@YEAR DOY   DAS   DAP   TWAD    PHAD    CMAD    CGRD    GRAD    MRAD    CHAD   CL%D   CS%D   TGNN   TGAV    GN%D    GL%D    GC%D
 2010 286     4     0      0  0.0000  0.0000  0.0000  0.0000  0.0000 0.00000  0.000  0.000 24.327 18.628  0.0000  0.0000  0.0000
 2010 287     5     1      0  0.0000  0.0000  0.0000  0.0000  0.0000 0.00000  0.000  0.000 19.891 17.789  0.0000  0.0000  0.0000
 2010 288     6     2      0  0.0000  0.0000  0.0000  0.0000  0.0000 0.00000  0.000  0.000 19.217 11.127  0.0000  0.0000  0.0000
 2010 289     7     3      0  0.0000  0.0000  0.0000  0.0000  0.0000 0.00000  0.000  0.000 17.145 14.686  0.0000  0.0000  0.0000
 2010 290     8     4      0  0.0000  0.0000  0.0000  0.0000  0.0000 0.00000  0.000  0.000 17.628 12.779  0.0000  0.0000  0.0000
 2010 291     9     5      0  0.0000  0.0000  0.0000  0.0000  0.0000 0.00000  0.000  0.000 20.083 13.699  0.0000  0.0000  0.0000
 2010 292    10     6      0  0.0000  0.0000  0.0000  0.0000  0.0000 0.00000  0.000  0.000 21.126 14.348  0.0000  0.0000  0.0000
 2010 293    11     7      0  0.0000  0.0000  0.0000  0.0000  0.0000 0.00000  0.000  0.000 23.464 17.933  0.0000  0.0000  0.0000
 2010 294    12     8      8  0.0000  0.0005  0.0003  0.0001  0.0000 0.00000  3.945  7.886 25.912 19.523  0.0000  0.0000  0.0000
 2010 295    13     9      9  0.1539  0.0005  0.0977  0.0328  0.0104 0.00000  3.898  7.802 23.754 19.827  0.0000  0.0000  0.0000
 2010 296    14    10      9  0.1565  0.0004  0.1007  0.0350  0.0076 0.00000  3.872  7.758 20.291 15.721  0.0000  0.0000  0.0000
 2010 297    15    11     10  0.1422  0.0004  0.0917  0.0311  0.0076 0.00000  3.844  7.713 20.989 15.918  0.0000  0.0000  0.0000
 2010 298    16    12     11  0.1787  0.0005  0.1155  0.0389  0.0094 0.00000  3.817  7.673 20.274 16.595  0.0000  0.0000  0.0000
 2010 299    17    13     13  0.1774  0.0004  0.1163  0.0382  0.0079 0.00000  3.800  7.657 19.820 13.817  0.0000  0.0000  0.0000
 2010 300    18    14     14  0.2174  0.0006  0.1410  0.0455  0.0129 0.00000  3.769  7.618 21.767 17.800  0.0000  0.0000  0.0000
 2010 301    19    15     16  0.2787  0.0007  0.1814  0.0575  0.0167 0.00000  3.741  7.591 23.556 18.088  0.0000  0.0000  0.0000
 2010 302    20    16     16  0.1177  0.0007  0.0751  0.0250  0.0083 0.00000  3.715  7.541 19.226 15.865  0.0000  0.0000  0.0000
 2010 303    21    17     18  0.2466  0.0006  0.1622  0.0517  0.0119 0.00000  3.700  7.531 19.620 15.008  0.0000  0.0000  0.0000
 2010 304    22    18     20  0.3071  0.0008  0.2017  0.0627  0.0171 0.00000  3.679  7.519 22.248 16.706  0.0000  0.0000  0.0000
 2010 305    23    19     22  0.3416  0.0010  0.2238  0.0689  0.0207 0.00000  3.655  7.501 22.900 17.714  0.0000  0.0000  0.0000
 2010 306    24    20     24  0.3747  0.0011  0.2332  0.0874  0.0231 0.00000  3.661  7.466 24.242 17.410  0.0000  0.0000  0.0000
 2010 307    25    21     27  0.4514  0.0015  0.2736  0.1063  0.0349 0.00000  3.663  7.416 27.535 20.416  0.0000  0.0000  0.0000
 2010 308    26    22     30  0.4527  0.0018  0.2739  0.1018  0.0411 0.00000  3.647  7.362 28.717 22.277  0.0000  0.0000  0.0000
 2010 309    27    23     33  0.6165  0.0016  0.3887  0.1363  0.0402 0.00000  3.641  7.366 24.711 19.236  0.0000  0.0000  0.0000
 2010 310    28    24     37  0.6364  0.0016  0.4057  0.1398  0.0375 0.00000  3.637  7.379 23.660 17.541  0.0000  0.0000  0.0000
 2010 311    29    25     42  0.7672  0.0024  0.4703  0.1681  0.0668 0.00000  3.627  7.363 29.741 22.296  0.0000  0.0000  0.0000
 2010 312    30    26     47  0.8759  0.0031  0.5450  0.1802  0.0922 0.00000  3.652  7.331 32.607 25.054  0.0000  0.0000  0.0000
 2010 313    31    27     48  0.2294  0.0009  0.1296  0.0615  0.0121 0.00000  3.649  7.311 13.638 11.204  0.0000  0.0000  0.0000
 2010 314    32    28     52  0.6866  0.0014  0.4395  0.1528  0.0288 0.00000  3.653  7.341 19.246 12.766  0.0000  0.0000  0.0000
 2010 315    33    29     57  0.6619  0.0014  0.4243  0.1469  0.0268 0.00000  3.656  7.363 17.977 12.319  0.0000  0.0000  0.0000
 2010 316    34    30     61  0.7755  0.0018  0.4968  0.1685  0.0353 0.00000  3.655  7.380 18.891 14.021  0.0000  0.0000  0.0000
 2010 317    35    31     67  0.9609  0.0023  0.6183  0.2043  0.0468 0.00000  3.651  7.400 20.270 15.077  0.0000  0.0000  0.0000
 2010 318    36    32     73  0.9432  0.0029  0.6048  0.1986  0.0530 0.00000  3.638  7.402 21.029 16.230  0.0000  0.0000  0.0000
 2010 319    37    33     80  1.0943  0.0039  0.6878  0.2370  0.0712 0.00000  3.625  7.385 21.979 18.326  0.0000  0.0000  0.0000
 2010 320    38    34     88  1.3145  0.0042  0.8259  0.2898  0.0805 0.00000  3.620  7.378 21.480 18.077  0.0000  0.0000  0.0000
 2010 321    39    35     97  1.5281  0.0047  0.9646  0.3357  0.0954 0.00000  3.613  7.379 22.970 18.242  0.0000  0.0000  0.0000
 2010 322    40    36    108  1.7852  0.0048  1.1361  0.3914  0.1054 0.00000  3.608  7.394 23.607 17.410  0.0000  0.0000  0.0000
 2010 323    41    37    115  1.1545  0.0055  0.7252  0.2496  0.0848 0.00000  3.589  7.366 23.771 17.466  0.0000  0.0000  0.0000
 2010 324    42    38    127  1.9762  0.0080  1.2314  0.4161  0.1663 0.00000  3.566  7.349 27.225 21.564  0.0000  0.0000  0.0000
 2010 325    43    39    141  2.3421  0.0104  1.4312  0.4991  0.2225 0.00000  3.543  7.315 26.525 23.981  0.0000  0.0000  0.0000
 2010 326    44    40    157  2.6052  0.0091  1.6405  0.5565  0.1889 0.00000  3.532  7.321 24.641 20.305  0.0000  0.0000  0.0000
 2010 327    45    41    171  2.3441  0.0103  1.4728  0.4933  0.1832 0.00000  3.512  7.306 24.309 20.403  0.0000  0.0000  0.0000
 2010 328    46    42    185  2.3944  0.0125  1.4822  0.4983  0.2193 0.00000  3.487  7.275 26.815 21.870  0.0000  0.0000  0.0000
 2010 329    47    43    208  3.7639  0.0111  2.2956  0.8991  0.2517 0.00000  3.528  7.271 25.633 19.146  0.0000  0.0000  0.0000
 2010 330    48    44    233  4.4370  0.0154  2.6569  1.0385  0.3764 0.00000  3.551  7.251 28.514 22.493  0.0000  0.0000  0.0000
 2010 331    49    45    260  4.7147  0.0178  2.7902  1.0884  0.4542 0.00000  3.560  7.226 30.884 23.716  0.0000  0.0000  0.0000
 2010 332    50    46    280  3.3168  0.0129  2.0413  0.7952  0.2006 0.00000  3.565  7.211 20.180 16.954  0.0000  0.0000  0.0000
 2010 333    51    47    304  3.9691  0.0123  2.4581  0.9564  0.2144 0.00000  3.576  7.215 20.878 15.788  0.0000  0.0000  0.0000
 2010 334    52    48    347  7.1969  0.0165  4.4208  1.7176  0.4409 0.00000  3.603  7.248 26.324 17.901  0.0000  0.0000  0.0000
 2010 335    53    49    396  8.2667  0.0257  4.9688  1.9267  0.6838 0.00000  3.610  7.247 29.209 22.327  0.0000  0.0000  0.0000
 2010 336    54    50    448  8.9981  0.0328  5.3016  2.0513  0.9167 0.00000  3.605  7.228 32.132 25.035  0.0000  0.0000  0.0000
 2010 337    55    51    504  9.6635  0.0366  5.7701  2.2277  0.8733 0.00000  3.598  7.210 28.822 23.553  0.0000  0.0000  0.0000
 2010 338    56    52    574 11.8706  0.0353  7.3292  2.7119  0.9108 0.00000  3.618  7.223 28.399 21.194  0.0000  0.0000  0.0000
 2010 339    57    53    656 14.0215  0.0446  8.6164  3.1280  1.1427 0.02198  3.671  7.305 28.385 22.471  0.0000  0.0000  0.0000
 2010 340    58    54    748 15.5378  0.0457  9.5233  3.5061  1.1508 0.06879  3.754  7.517 28.052 20.703  0.0000  0.0000  0.0000
 2010 341    59    55    848 17.2385  0.0488  9.9237  4.1126  1.3629 0.11046  3.826  7.785 30.583 20.367  0.0000  0.0000  0.0000
 2010 342    60    56    935 14.9713  0.0612  8.8250  3.4198  1.1421 0.13987  3.898  8.039 26.885 20.146  0.0000  0.0000  0.0000
 2010 343    61    57   1054 20.7411  0.0959 12.1091  4.5488  2.1866 0.26720  4.032  8.448 30.369 25.997  0.0000  0.0000  0.0000
 2010 344    62    58   1170 20.0270  0.0835 11.8527  4.3709  1.9043 0.31260  4.181  8.865 32.154 22.370  0.0000  0.0000  0.0000
 2010 345    63    59   1270 17.4394  0.1118  9.9386  3.8879  1.8093 0.31621  4.272  9.184 30.118 23.452  0.0000  0.0000  0.0000
 2010 346    64    60   1315  8.2560  0.0652  4.5075  2.0432  0.5871 0.15823  4.302  9.315 19.240 15.047  0.0000  0.0000  0.0000
 2010 347    65    61   1448 21.1577  0.0731 13.3893  4.5526  1.1483 0.50928  4.501  9.846 23.348 15.142  0.0000  0.0000  0.0000
 2010 348    66    62   1632 28.1230  0.0000 16.3118  4.6770  1.9371 2.75266  5.645 13.134 27.130 18.602  0.0000  0.0000  0.0000
 2010 349    67    63   1816 29.1371  0.0000 16.5026  4.5588  2.6946 2.96453  6.651 15.922 29.351 22.758  0.0000  0.0000  0.0000
 2010 350    68    64   1994 30.8590  0.2912 17.8596  6.5743  3.0235 0.96843  6.659 15.874 29.538 23.447  0.0000  0.0000  0.0000
 2010 351    69    65   2176 32.5479  0.3487 18.4494  6.7298  3.6033 1.11527  6.688 15.894 30.505 25.130  0.0000  0.0000  0.0000
 2010 352    70    66   2332 28.2331  0.3950 16.0227  5.6491  3.4541 1.07716  6.722 15.932 30.085 25.463  0.0000  0.0000  0.0000
 2010 353    71    67   2404 16.2525  0.3347  6.7949  4.3570  1.8246 0.50380  6.613 15.819 22.902 20.753  0.0000  0.0000  0.0000
 2010 354    72    68   2538 27.4992  0.4382 15.6310  5.2291  3.2634 1.27300  6.774 16.014 27.143 24.563  0.0000  0.0000  0.0000
 2010 355    73    69   2751 36.5411  0.4334 21.4524  6.8970  3.9256 1.79569  6.925 16.343 29.686 23.990  0.0000  0.0000  0.0000
 2010 356    74    70   2981 38.9480  0.2216 22.8565  6.3693  4.6376 2.16885  7.177 16.929 30.806 25.432  0.0000  0.0000  0.0000
 2010 357    75    71   3222 40.1528  0.0000 22.4510  6.0943  4.7552 3.55754  7.738 18.376 30.419 25.080  0.0000  0.0000  0.0000
 2010 358    76    72   3305 19.1943  0.6362 11.0122  3.4509  2.8882 1.01219  7.751 18.337 25.696 23.259  0.0000  0.0000  0.0000
 2010 359    77    73   3530 40.6309  0.7161 22.9704  7.4232  5.3055 2.30147  7.865 18.572 30.831 26.066  0.0000  0.0000  0.0000
 2010 360    78    74   3771 42.5762  0.7080 24.2528  7.6082  5.2007 2.52208  7.994 18.857 31.032 24.654  0.0000  0.0000  0.0000
 2010 361    79    75   3996 42.5869  0.8203 22.7246  8.0781  5.7505 2.58764  8.105 19.109 31.437 25.883  0.0000  0.0000  0.0000
 2010 362    80    76   4250 43.6657  0.7712 25.4815  8.0305  4.6463 2.79328  8.244 19.421 27.656 22.424  0.0000  0.0000  0.0000
 2010 363    81    77   4469 41.0675  0.9328 22.7806  7.5214  5.2431 2.55939  8.348 19.633 28.321 24.343  0.0000  0.0000  0.0000
 2010 364    82    78   4715 44.9674  0.8752 24.7993  8.6079  4.8295 2.90935  8.480 19.928 27.060 22.115  0.0000  0.0000  0.0000
 2010 365    83    79   4948 44.8130  1.0366 24.2435  8.3544  5.7142 2.85179  8.591 20.163 28.765 24.106  0.0000  0.0000  0.0000
 2011 001    84    80   5142 37.7673  1.0815 20.7783  6.8650  5.3671 2.26317  8.658 20.283 29.164 23.967  0.0000  0.0000  0.0000
 2011 002    85    81   5298 32.6124  1.0806 17.7476  6.1227  4.5359 1.68015  8.690 20.309 25.884 22.622  0.0000  0.0000  0.0000
 2011 003    86    82   5388 21.3761  0.0000 10.2797  3.6056  3.5393 1.45114  8.908 20.804 23.424 21.345  0.0000  0.0000  0.0000
 2011 004    87    83   5531 31.9980  1.2513 17.0108  5.8311  5.3304 1.41855  8.912 20.749 28.546 24.388  0.0000  0.0000  0.0000
 2011 005    88    84   5664 30.8274  1.3149 16.4250  5.4875  5.5500 1.22133  8.902 20.659 28.852 24.981  0.0000  0.0000  0.0000
 2011 006    89    85   5892 45.6523  1.3080 24.3618  8.2980  6.8716 2.63455  8.991 20.839 30.294 25.204  0.0000  0.0000  0.0000
 2011 007    90    86   6099 45.4707  1.5621 22.7329  7.8808  8.9000 2.80080  9.069 20.991 33.141 28.983  0.0000  0.0000  0.0000
 2011 008    91    87   6264 41.4309  1.5666 21.2255  7.4804  7.3737 2.18345  9.113 21.039 30.699 26.433  0.0000  0.0000  0.0000
 2011 009    92    88   6427 42.2217  1.6710 21.6513  7.5772  7.9437 2.21712  9.152 21.078 31.556 27.183  6.6510 20.5000 29.4311
 2011 010    93    89   6507 27.8023  1.4830 14.6356  5.4944  5.3168 0.18096  9.068 20.788 28.881 23.254  6.4071 20.4916 30.9639
 2011 011    94    90   6587 28.4727  1.5504 15.0857  5.7698  5.1876 0.00000  8.965 20.448 25.813 23.197  6.3524 20.4880 31.3093
 2011 012    95    91   6688 35.6965  1.6101 17.8941  7.3367  5.9484 0.55516  8.898 20.207 27.055 23.757  6.3507 20.4929 31.3154
 2011 013    96    92   6840 43.1130  1.5889 21.1811  8.9381  6.3245 1.36902  8.897 20.145 27.441 23.319  6.3366 20.4925 31.4041
 2011 014    97    93   6976 44.7744  1.6680 22.1095  9.4559  6.6997 1.51435  8.902 20.103 27.765 23.715  6.3389 20.4947 31.3869
 2011 015    98    94   7115 45.6821  1.8071 21.7107  9.6316  8.0991 1.45304  8.892 20.022 31.054 25.930  6.3963 20.4962 31.0268
 2011 016    99    95   7195 36.4942  1.9227 17.5981  7.4537  8.2852 0.44956  8.794 19.703 32.624 27.427  6.4658 20.4972 30.5916
 2011 017   100    96   7277 36.3344  1.8085 17.7971  8.2385  6.7604 0.00000  8.670 19.311 28.848 24.511  6.4530 20.4979 30.6707
 2011 018   101    97   7393 42.8058  1.7847 20.3792  9.8202  7.4538 0.43787  8.584 19.022 30.061 24.722  6.4487 20.4984 30.6975
 2011 019   102    98   7534 43.2292  1.8159 21.3711  9.7178  7.7747 0.24673  8.480 18.683 30.530 25.119  6.4527 20.4987 30.6721
 2011 020   103    99   7648 43.4662  1.8268 20.8314 10.1590  7.6675 0.04959  8.359 18.296 29.790 24.810  6.4506 20.4989 30.6848
 2011 021   104   100   7788 42.8796  1.6069 21.7042 10.1437  6.2355 0.15825  8.266 17.984 28.035 21.622  6.4115 20.4488 30.9794
 2011 022   105   101   7889 40.9366  1.8754 19.7189  9.5095  7.9328 0.00000  8.136 17.572 30.020 25.398  6.4241 20.4567 30.8928
 2011 023   106   102   7968 42.6107  1.8848 20.5699  9.7635  8.3767 0.00000  8.004 17.155 30.502 25.845  6.4397 20.4629 30.7889
 2011 024   107   103   8032 38.5613  2.0143 17.5709  8.5340  9.9746 0.00000  7.858 16.700 32.989 29.084  6.4908 20.4679 30.4645
 2011 025   108   104   8098 37.4931  1.8930 17.3994  8.7594  8.6589 0.00000  7.722 16.268 31.088 26.933  6.5097 20.4723 30.3420
 2011 026   109   105   8094 20.3521  1.4871  9.5380  4.0317  7.3837 0.06835  7.632 15.951 33.817 26.402  6.5249 20.4616 30.2581
 2011 027   110   106   8159 34.2110  1.8037 15.9256  7.9916  8.2109 0.00000  7.507 15.527 30.680 26.526  6.5335 20.4664 30.1995
 2011 028   111   107   8239 38.3536  1.7912 17.8677  8.9968  8.9938 0.00000  7.380 15.098 31.448 27.222  6.5473 20.4703 30.1089
 2011 029   112   108   8317 38.0434  1.7248 17.8132  9.1473  8.5986 0.00000  7.255 14.677 30.874 26.469  6.5518 20.4735 30.0780
 2011 030   113   109   8328 22.1187  1.5615 11.0981  4.6767  7.1209 0.03093  7.148 14.302 30.413 25.866  6.5592 20.4575 30.0477
 2011 031   114   110   8283 17.9060  1.6285  9.4348  3.2093  6.9459 0.00000  7.025 13.888 30.636 26.161  6.5593 20.4603 30.0442
 2011 032   115   111   8356 31.6201  1.2084 15.4657  8.0915  6.5635 0.08866  6.962 13.609 26.626 23.654  6.5587 20.4202 30.0878
 2011 033   116   112   8466 38.7925  1.3324 18.9019 10.2526  6.3384 0.00000  6.858 13.252 28.104 21.553  6.5209 20.4026 30.3416
 2011 034   117   113   8558 36.7991  1.0440 16.5568  9.4606  8.2888 0.11892  6.809 13.017 32.183 25.346  6.5417 20.3625 30.2520
 2011 035   118   114   8622 29.7743  1.1404 13.9218  7.2641  7.3529 0.09345  6.741 12.739 29.345 24.943  6.5528 20.3364 30.2084
 2011 036   119   115   8700 35.2164  1.0060 15.3416  8.7740  8.9112 0.13742  6.693 12.512 32.082 26.786  6.5809 20.2992 30.0703
 2011 037   120   116   8775 29.2842  1.1548 13.4992  7.1665  7.4380 0.07690  6.607 12.208 28.950 25.086  6.5866 20.2853 30.0485
 2011 038   121   117   8839 26.5152  1.1411 12.1944  6.2649  7.1954 0.07202  6.514 11.900 28.931 25.032  6.5914 20.2732 30.0308
 2011 039   122   118   8844 14.8859  1.1908  8.0099  2.9581  4.6966 0.00697  6.391 11.543 22.396 21.394  6.5800 20.2660 30.1091
 2011 040   123   119   8874 17.8347  1.0515  9.1024  3.9466  4.6531 0.03536  6.287 11.234 22.066 20.993  6.5714 20.2451 30.1836
 2011 041   124   120   8904 17.8800  1.0605  8.9668  3.9381  4.8102 0.02948  6.173 10.913 23.741 21.381  6.5632 20.2323 30.2480
 2011 042   125   121   8991 29.3129  0.9270 13.3724  7.1799  6.1203 0.08199  6.086 10.653 25.211 23.030  6.5610 20.2212 30.2724
 2011 043   126   122   9049 21.9468  0.9919 10.4139  5.3249  5.1288 0.04083  5.971 10.349 24.686 21.720  6.5539 20.2104 30.3279
 2011 044   127   123   9138 28.2501  0.8095 12.8960  7.3934  5.3266 0.08570  5.889 10.120 25.272 21.305  6.5494 20.1835 30.3830
 2011 045   128   124   9225 27.2242  0.8121 12.4627  7.2533  5.0755 0.07531  5.799  9.882 25.063 20.847  6.5440 20.1545 30.4456
 2011 046   129   125   9310 25.2611  0.7250 11.8629  7.3534  4.1650 0.07143  5.715  9.670 24.460 18.315  6.5401 20.0732 30.5510
 2011 047   130   126   9387 25.2885  0.8292 11.2294  6.8095  5.3349 0.06721  5.610  9.417 26.837 21.622  6.5366 20.0618 30.5844
 2011 048   131   127   9449 24.2060  0.9321 10.0294  6.0553  6.7406 0.05840  5.480  9.120 29.291 25.184  6.5410 20.0615 30.5570
 2011 049   132   128   9501 21.5840  0.9764  8.9029  5.2577  6.5010 0.03573  5.331  8.795 29.270 25.128  6.5430 20.0647 30.5417
 2011 050   133   129   9558 20.7758  0.8530  8.9659  5.3853  5.1532 0.04510  5.200  8.513 25.678 22.287  6.5402 20.0624 30.5613
 2011 051   134   130   9604 18.0477  0.8689  7.7294  4.5192  4.9606 0.03274  5.058  8.216 25.323 22.290  6.5373 20.0618 30.5799
 2011 052   135   131   9607 11.2371  0.9838  4.5098  2.0692  5.1969 0.00000  4.882  7.860 27.368 23.978  6.5353 20.0670 30.5872
 2011 053   136   132   9335 15.6391  0.9361  6.3963  3.0357  5.4469 0.00000  4.649  6.980 27.224 23.977  6.5068 20.1273 30.7053
 2011 054   137   133   9086  6.7030  0.7236  2.6166  0.9333  3.8226 0.00000  4.440  6.242 22.575 21.576  6.5048 20.1276 30.7175
 2011 055   138   134   8896  8.5236  0.6030  3.3261  1.6242  3.7638 0.00000  4.239  5.611 23.849 21.389  6.5022 20.1275 30.7337
 2011 056   139   135   8741  7.0568  0.5235  2.4730  1.0679  3.8153 0.00000  4.042  5.063 24.506 22.189  6.5006 20.1288 30.7427
 2011 057   140   136   8620  7.0616  0.4373  2.5110  1.1825  3.4655 0.00000  3.857  4.599 24.211 21.218  6.4986 20.1283 30.7552
 2011 058   141   137   8521  4.9096  0.3490  1.7454  0.7425  2.6589 0.00000  3.695  4.216 23.536 18.299  6.4974 20.1206 30.7708
 2011 059   142   138   8435  3.9482  0.3181  1.0907  0.3129  2.9201 0.00000  3.533  3.880 26.025 19.400  6.4965 20.1179 30.7788
 2011 060   143   139   8360  2.8697  0.2965  0.1101  0.0316  3.0288 0.00000  3.364  3.583 25.123 20.814  6.4964 20.1178 30.7794
 2011 061   144   140   8293  2.3537  0.2747  0.0000  0.0000  3.3028 0.00000  3.197  3.320 27.211 21.978  6.4964 20.1178 30.7794
 2011 062   145   141   8240  1.9116  0.2528  0.0000  0.0000  3.3975 0.00000  3.037  3.087 27.871 22.569  6.4964 20.1178 30.7794
 2011 063   146   142   8196  1.5505  0.2344  0.0000  0.0000  3.3740 0.00000  2.882  2.880 27.255 22.843  6.4964 20.1178 30.7794
 2011 064   147   143   8160  1.2668  0.1996  0.0000  0.0000  2.7145 0.00000  2.747  2.705 25.733 19.936  6.4964 20.1178 30.7794
