*PLANT N BALANCE

*DSSAT Cropping System Model Ver. 4.6.1.000 -release      NOV 01, 2016; 12:10:37
                                                                                
*RUN   1        : UYSB                      CRGRO046 UYSB1026    1              
 MODEL          : CRGRO046 - Soybean                                            
 EXPERIMENT     : UYSB1026 SN late to create DSS                                
 DATA PATH      :                                                               
 TREATMENT  1   : UYSB                      CRGRO046                            
                                                                                
                                                                                
 CROP           : Soybean          CULTIVAR : GM 4 URUGUAY     ECOTYPE :INDETE  
 STARTING DATE  : OCT 30 1990                                                   
 PLANTING DATE  : NOV  2 1990        PLANTS/m2 :  7.0     ROW SPACING :  15.cm  
 WEATHER        : UYTA   1990                                                   
 SOIL           : UYSS0N2002     TEXTURE : -99   -  N20-02    SNIA CLAY RISS    
 SOIL INITIAL C : DEPTH:125cm EXTR. H2O:154.7mm  NO3: 28.7kg/ha  NH4: 24.1kg/ha 
 WATER BALANCE  : AUTOMATIC IRRIGATION - REFILL PROFILE                         
 IRRIGATION     : AUTOMATIC - PLANTING -> MATURITY [ SOIL DEPTH: 0.30m 50.%]    
 NITROGEN BAL.  : SOIL-N, N-UPTAKE & DYNAMIC N-FIXATION SIMULATION              
 N-FERTILIZER   : NO N-FERTILIZER APPLIED                                       
 RESIDUE/MANURE : INITIAL :     0 kg/ha ;       0 kg/ha IN     0 APPLICATIONS   
 ENVIRONM. OPT. : DAYL=    0.00  SRAD=    0.00  TMAX=    0.00  TMIN=    0.00    
                  RAIN=    0.00  CO2 =    0.00  DEW =    0.00  WIND=    0.00    
 SIMULATION OPT : WATER   :Y  NITROGEN:Y  N-FIX:Y  PHOSPH :N  PESTS  :N         
                  PHOTO   :C  ET      :R  INFIL:S  HYDROL :R  SOM    :G         
                  CO2 355ppm  NSWIT   :1  EVAP :S  SOIL   :2  STEMP  :D         
 MANAGEMENT OPT : PLANTING:R  IRRIG   :A  FERT :N  RESIDUE:N  HARVEST:M         
                  WEATHER :M  TILLAGE :N                                        
                                                                                
*SUMMARY OF SOIL AND GENETIC INPUT PARAMETERS                                   
                                                                                
   SOIL LOWER UPPER   SAT  EXTR  INIT   ROOT   BULK     pH    NO3    NH4    ORG 
  DEPTH LIMIT LIMIT    SW    SW    SW   DIST   DENS                          C  
   cm   cm3/cm3    cm3/cm3    cm3/cm3         g/cm3         ugN/g  ugN/g     %  
------------------------------------------------------------------------------- 
  0-  5 0.215 0.440 0.484 0.225 0.282   1.00   1.05   0.40   5.00   1.50   4.64 
  5- 15 0.215 0.440 0.484 0.225 0.282   1.00   1.05   0.40   5.00   1.50   4.64 
 15- 30 0.215 0.440 0.484 0.225 0.282   1.00   1.05   0.40   5.00   1.50   4.64 
 30- 41 0.219 0.365 0.457 0.146 0.262   0.40   1.22   6.80   4.60   1.50   2.74 
 41- 53 0.219 0.365 0.457 0.146 0.262   0.40   1.22   6.80   4.60   1.50   2.74 
 53- 63 0.215 0.287 0.429 0.072 0.287   0.10   1.38   7.30   0.00   1.50   1.07 
 63- 74 0.215 0.287 0.429 0.072 0.287   0.10   1.38   7.30   0.00   1.50   1.07 
 74- 84 0.215 0.287 0.429 0.072 0.287   0.10   1.38   7.30   0.00   1.50   1.07 
 84-110 0.214 0.275 0.424 0.061 0.275   0.10   1.41   7.80   0.00   1.50   0.71 
110-125 0.209 0.312 0.438 0.103 0.312   0.00   1.44   8.00   0.00   1.50   0.35 
                                                                                
TOT-125  26.9  42.3  55.9  15.5  35.2  <--cm   -  kg/ha-->   28.7   24.1 302408 
SOIL ALBEDO    : 0.12      EVAPORATION LIMIT :10.00         MIN. FACTOR  : 1.00 
RUNOFF CURVE # : 0.75      DRAINAGE RATE     : 0.25         FERT. FACTOR : 1.00 
                                                                                
 Soybean    CULTIVAR :UY0141-GM 4 URUGUAY       ECOTYPE :INDETE                 
 CSDVAR :13.39  PPSEN  : 0.29  EMG-FLW:20.80  FLW-FSD:18.00  FSD-PHM : 36.00    
 WTPSD  :0.200  SDPDVR : 1.70  SDFDUR :26.00  PODDUR :10.00  XFRUIT  :  1.00    
 THRESH : 77.0  SDPRO  :0.405  SDLIP   : 0.205                                  


   PLANT COMPONENT  HARVEST     LOST*   TOTAL  BALANCE
   ---------------  -------- kg[N]/ha -------  -------
   Leaf N              1.27    24.03    25.30
   Stem N              8.07     4.12    12.19
   Shell N            22.70    28.43    51.12
   Seed N            207.72     0.00   207.72
   Root N              6.40     6.22    12.63
   Nodule N            2.34     3.71     6.06
   Total N           248.51    66.51   315.02
   N leakage                            23.20
   TOTAL N                                      338.22


   N INPUTS TO SYSTEM                kg[N]/ha
   ------------------                --------
   Seed N At Planting                    0.68
   N2 Fixed                            169.78
   N Uptake from Soil                  167.79
   TOTAL N                                      338.24

   * Lost due to senescence, freeze, pest or disease damage.

*******************************************************************************

*DSSAT Cropping System Model Ver. 4.6.1.000 -release      NOV 01, 2016; 12:10:37
                                                                                
*RUN   2        : UYSB                      CRGRO046 UYSB1026    1              
 MODEL          : CRGRO046 - Soybean                                            
 EXPERIMENT     : UYSB1026 SN late to create DSS                                
 DATA PATH      :                                                               
 TREATMENT  1   : UYSB                      CRGRO046                            
                                                                                
                                                                                
 CROP           : Soybean          CULTIVAR : GM 4 URUGUAY     ECOTYPE :INDETE  
 STARTING DATE  : OCT 30 1991                                                   
 PLANTING DATE  : NOV  2 1991        PLANTS/m2 :  7.0     ROW SPACING :  15.cm  
 WEATHER        : UYTA9101                                                      
 SOIL           : UYSS0N2002     TEXTURE : -99   -  N20-02    SNIA CLAY RISS    
 SOIL INITIAL C : DEPTH:125cm EXTR. H2O:154.7mm  NO3: 28.7kg/ha  NH4: 24.1kg/ha 
 WATER BALANCE  : AUTOMATIC IRRIGATION - REFILL PROFILE                         
 IRRIGATION     : AUTOMATIC - PLANTING -> MATURITY [ SOIL DEPTH: 0.30m 50.%]    
 NITROGEN BAL.  : SOIL-N, N-UPTAKE & DYNAMIC N-FIXATION SIMULATION              
 N-FERTILIZER   : NO N-FERTILIZER APPLIED                                       
 RESIDUE/MANURE : INITIAL :     0 kg/ha ;       0 kg/ha IN     0 APPLICATIONS   
 ENVIRONM. OPT. : DAYL=    0.00  SRAD=    0.00  TMAX=    0.00  TMIN=    0.00    
                  RAIN=    0.00  CO2 =    0.00  DEW =    0.00  WIND=    0.00    
 SIMULATION OPT : WATER   :Y  NITROGEN:Y  N-FIX:Y  PHOSPH :N  PESTS  :N         
                  PHOTO   :C  ET      :R  INFIL:S  HYDROL :R  SOM    :G         
                  CO2 356ppm  NSWIT   :1  EVAP :S  SOIL   :2  STEMP  :D         
 MANAGEMENT OPT : PLANTING:R  IRRIG   :A  FERT :N  RESIDUE:N  HARVEST:M         
                  WEATHER :M  TILLAGE :N                                        
                                                                                
*SUMMARY OF SOIL AND GENETIC INPUT PARAMETERS                                   
                                                                                
   SOIL LOWER UPPER   SAT  EXTR  INIT   ROOT   BULK     pH    NO3    NH4    ORG 
  DEPTH LIMIT LIMIT    SW    SW    SW   DIST   DENS                          C  
   cm   cm3/cm3    cm3/cm3    cm3/cm3         g/cm3         ugN/g  ugN/g     %  
------------------------------------------------------------------------------- 
  0-  5 0.215 0.440 0.484 0.225 0.282   1.00   1.05   0.40   5.00   1.50   4.64 
  5- 15 0.215 0.440 0.484 0.225 0.282   1.00   1.05   0.40   5.00   1.50   4.64 
 15- 30 0.215 0.440 0.484 0.225 0.282   1.00   1.05   0.40   5.00   1.50   4.64 
 30- 41 0.219 0.365 0.457 0.146 0.262   0.40   1.22   6.80   4.60   1.50   2.74 
 41- 53 0.219 0.365 0.457 0.146 0.262   0.40   1.22   6.80   4.60   1.50   2.74 
 53- 63 0.215 0.287 0.429 0.072 0.287   0.10   1.38   7.30   0.00   1.50   1.07 
 63- 74 0.215 0.287 0.429 0.072 0.287   0.10   1.38   7.30   0.00   1.50   1.07 
 74- 84 0.215 0.287 0.429 0.072 0.287   0.10   1.38   7.30   0.00   1.50   1.07 
 84-110 0.214 0.275 0.424 0.061 0.275   0.10   1.41   7.80   0.00   1.50   0.71 
110-125 0.209 0.312 0.438 0.103 0.312   0.00   1.44   8.00   0.00   1.50   0.35 
                                                                                
TOT-125  26.9  42.3  55.9  15.5  35.2  <--cm   -  kg/ha-->   28.7   24.1 302408 
SOIL ALBEDO    : 0.12      EVAPORATION LIMIT :10.00         MIN. FACTOR  : 1.00 
RUNOFF CURVE # : 0.75      DRAINAGE RATE     : 0.25         FERT. FACTOR : 1.00 
                                                                                
 Soybean    CULTIVAR :UY0141-GM 4 URUGUAY       ECOTYPE :INDETE                 
 CSDVAR :13.39  PPSEN  : 0.29  EMG-FLW:20.80  FLW-FSD:18.00  FSD-PHM : 36.00    
 WTPSD  :0.200  SDPDVR : 1.70  SDFDUR :26.00  PODDUR :10.00  XFRUIT  :  1.00    
 THRESH : 77.0  SDPRO  :0.405  SDLIP   : 0.205                                  


   PLANT COMPONENT  HARVEST     LOST*   TOTAL  BALANCE
   ---------------  -------- kg[N]/ha -------  -------
   Leaf N              0.98    19.74    20.72
   Stem N              6.45     3.35     9.80
   Shell N            16.55    20.00    36.54
   Seed N            198.68     0.00   198.68
   Root N              4.87     5.95    10.82
   Nodule N            1.69     3.28     4.97
   Total N           229.22    52.32   281.54
   N leakage                            17.03
   TOTAL N                                      298.57


   N INPUTS TO SYSTEM                kg[N]/ha
   ------------------                --------
   Seed N At Planting                    0.68
   N2 Fixed                            140.69
   N Uptake from Soil                  157.25
   TOTAL N                                      298.62

   * Lost due to senescence, freeze, pest or disease damage.

*******************************************************************************

*DSSAT Cropping System Model Ver. 4.6.1.000 -release      NOV 01, 2016; 12:10:37
                                                                                
*RUN   3        : UYSB                      CRGRO046 UYSB1026    1              
 MODEL          : CRGRO046 - Soybean                                            
 EXPERIMENT     : UYSB1026 SN late to create DSS                                
 DATA PATH      :                                                               
 TREATMENT  1   : UYSB                      CRGRO046                            
                                                                                
                                                                                
 CROP           : Soybean          CULTIVAR : GM 4 URUGUAY     ECOTYPE :INDETE  
 STARTING DATE  : OCT 29 1992                                                   
 PLANTING DATE  : NOV  1 1992        PLANTS/m2 :  7.0     ROW SPACING :  15.cm  
 WEATHER        : UYTA9201                                                      
 SOIL           : UYSS0N2002     TEXTURE : -99   -  N20-02    SNIA CLAY RISS    
 SOIL INITIAL C : DEPTH:125cm EXTR. H2O:154.7mm  NO3: 28.7kg/ha  NH4: 24.1kg/ha 
 WATER BALANCE  : AUTOMATIC IRRIGATION - REFILL PROFILE                         
 IRRIGATION     : AUTOMATIC - PLANTING -> MATURITY [ SOIL DEPTH: 0.30m 50.%]    
 NITROGEN BAL.  : SOIL-N, N-UPTAKE & DYNAMIC N-FIXATION SIMULATION              
 N-FERTILIZER   : NO N-FERTILIZER APPLIED                                       
 RESIDUE/MANURE : INITIAL :     0 kg/ha ;       0 kg/ha IN     0 APPLICATIONS   
 ENVIRONM. OPT. : DAYL=    0.00  SRAD=    0.00  TMAX=    0.00  TMIN=    0.00    
                  RAIN=    0.00  CO2 =    0.00  DEW =    0.00  WIND=    0.00    
 SIMULATION OPT : WATER   :Y  NITROGEN:Y  N-FIX:Y  PHOSPH :N  PESTS  :N         
                  PHOTO   :C  ET      :R  INFIL:S  HYDROL :R  SOM    :G         
                  CO2 356ppm  NSWIT   :1  EVAP :S  SOIL   :2  STEMP  :D         
 MANAGEMENT OPT : PLANTING:R  IRRIG   :A  FERT :N  RESIDUE:N  HARVEST:M         
                  WEATHER :M  TILLAGE :N                                        
                                                                                
*SUMMARY OF SOIL AND GENETIC INPUT PARAMETERS                                   
                                                                                
   SOIL LOWER UPPER   SAT  EXTR  INIT   ROOT   BULK     pH    NO3    NH4    ORG 
  DEPTH LIMIT LIMIT    SW    SW    SW   DIST   DENS                          C  
   cm   cm3/cm3    cm3/cm3    cm3/cm3         g/cm3         ugN/g  ugN/g     %  
------------------------------------------------------------------------------- 
  0-  5 0.215 0.440 0.484 0.225 0.282   1.00   1.05   0.40   5.00   1.50   4.64 
  5- 15 0.215 0.440 0.484 0.225 0.282   1.00   1.05   0.40   5.00   1.50   4.64 
 15- 30 0.215 0.440 0.484 0.225 0.282   1.00   1.05   0.40   5.00   1.50   4.64 
 30- 41 0.219 0.365 0.457 0.146 0.262   0.40   1.22   6.80   4.60   1.50   2.74 
 41- 53 0.219 0.365 0.457 0.146 0.262   0.40   1.22   6.80   4.60   1.50   2.74 
 53- 63 0.215 0.287 0.429 0.072 0.287   0.10   1.38   7.30   0.00   1.50   1.07 
 63- 74 0.215 0.287 0.429 0.072 0.287   0.10   1.38   7.30   0.00   1.50   1.07 
 74- 84 0.215 0.287 0.429 0.072 0.287   0.10   1.38   7.30   0.00   1.50   1.07 
 84-110 0.214 0.275 0.424 0.061 0.275   0.10   1.41   7.80   0.00   1.50   0.71 
110-125 0.209 0.312 0.438 0.103 0.312   0.00   1.44   8.00   0.00   1.50   0.35 
                                                                                
TOT-125  26.9  42.3  55.9  15.5  35.2  <--cm   -  kg/ha-->   28.7   24.1 302408 
SOIL ALBEDO    : 0.12      EVAPORATION LIMIT :10.00         MIN. FACTOR  : 1.00 
RUNOFF CURVE # : 0.75      DRAINAGE RATE     : 0.25         FERT. FACTOR : 1.00 
                                                                                
 Soybean    CULTIVAR :UY0141-GM 4 URUGUAY       ECOTYPE :INDETE                 
 CSDVAR :13.39  PPSEN  : 0.29  EMG-FLW:20.80  FLW-FSD:18.00  FSD-PHM : 36.00    
 WTPSD  :0.200  SDPDVR : 1.70  SDFDUR :26.00  PODDUR :10.00  XFRUIT  :  1.00    
 THRESH : 77.0  SDPRO  :0.405  SDLIP   : 0.205                                  


   PLANT COMPONENT  HARVEST     LOST*   TOTAL  BALANCE
   ---------------  -------- kg[N]/ha -------  -------
   Leaf N              1.02    20.08    21.10
   Stem N              6.41     3.43     9.84
   Shell N            18.98    18.52    37.50
   Seed N            226.52     0.00   226.52
   Root N              5.15     6.05    11.20
   Nodule N            2.59     3.30     5.89
   Total N           260.67    51.38   312.05
   N leakage                            14.59
   TOTAL N                                      326.64


   N INPUTS TO SYSTEM                kg[N]/ha
   ------------------                --------
   Seed N At Planting                    0.68
   N2 Fixed                            151.59
   N Uptake from Soil                  174.39
   TOTAL N                                      326.66

   * Lost due to senescence, freeze, pest or disease damage.

*******************************************************************************

*DSSAT Cropping System Model Ver. 4.6.1.000 -release      NOV 01, 2016; 12:10:37
                                                                                
*RUN   4        : UYSB                      CRGRO046 UYSB1026    1              
 MODEL          : CRGRO046 - Soybean                                            
 EXPERIMENT     : UYSB1026 SN late to create DSS                                
 DATA PATH      :                                                               
 TREATMENT  1   : UYSB                      CRGRO046                            
                                                                                
                                                                                
 CROP           : Soybean          CULTIVAR : GM 4 URUGUAY     ECOTYPE :INDETE  
 STARTING DATE  : OCT 30 1993                                                   
 PLANTING DATE  : NOV  2 1993        PLANTS/m2 :  7.0     ROW SPACING :  15.cm  
 WEATHER        : UYTA9301                                                      
 SOIL           : UYSS0N2002     TEXTURE : -99   -  N20-02    SNIA CLAY RISS    
 SOIL INITIAL C : DEPTH:125cm EXTR. H2O:154.7mm  NO3: 28.7kg/ha  NH4: 24.1kg/ha 
 WATER BALANCE  : AUTOMATIC IRRIGATION - REFILL PROFILE                         
 IRRIGATION     : AUTOMATIC - PLANTING -> MATURITY [ SOIL DEPTH: 0.30m 50.%]    
 NITROGEN BAL.  : SOIL-N, N-UPTAKE & DYNAMIC N-FIXATION SIMULATION              
 N-FERTILIZER   : NO N-FERTILIZER APPLIED                                       
 RESIDUE/MANURE : INITIAL :     0 kg/ha ;       0 kg/ha IN     0 APPLICATIONS   
 ENVIRONM. OPT. : DAYL=    0.00  SRAD=    0.00  TMAX=    0.00  TMIN=    0.00    
                  RAIN=    0.00  CO2 =    0.00  DEW =    0.00  WIND=    0.00    
 SIMULATION OPT : WATER   :Y  NITROGEN:Y  N-FIX:Y  PHOSPH :N  PESTS  :N         
                  PHOTO   :C  ET      :R  INFIL:S  HYDROL :R  SOM    :G         
                  CO2 357ppm  NSWIT   :1  EVAP :S  SOIL   :2  STEMP  :D         
 MANAGEMENT OPT : PLANTING:R  IRRIG   :A  FERT :N  RESIDUE:N  HARVEST:M         
                  WEATHER :M  TILLAGE :N                                        
                                                                                
*SUMMARY OF SOIL AND GENETIC INPUT PARAMETERS                                   
                                                                                
   SOIL LOWER UPPER   SAT  EXTR  INIT   ROOT   BULK     pH    NO3    NH4    ORG 
  DEPTH LIMIT LIMIT    SW    SW    SW   DIST   DENS                          C  
   cm   cm3/cm3    cm3/cm3    cm3/cm3         g/cm3         ugN/g  ugN/g     %  
------------------------------------------------------------------------------- 
  0-  5 0.215 0.440 0.484 0.225 0.282   1.00   1.05   0.40   5.00   1.50   4.64 
  5- 15 0.215 0.440 0.484 0.225 0.282   1.00   1.05   0.40   5.00   1.50   4.64 
 15- 30 0.215 0.440 0.484 0.225 0.282   1.00   1.05   0.40   5.00   1.50   4.64 
 30- 41 0.219 0.365 0.457 0.146 0.262   0.40   1.22   6.80   4.60   1.50   2.74 
 41- 53 0.219 0.365 0.457 0.146 0.262   0.40   1.22   6.80   4.60   1.50   2.74 
 53- 63 0.215 0.287 0.429 0.072 0.287   0.10   1.38   7.30   0.00   1.50   1.07 
 63- 74 0.215 0.287 0.429 0.072 0.287   0.10   1.38   7.30   0.00   1.50   1.07 
 74- 84 0.215 0.287 0.429 0.072 0.287   0.10   1.38   7.30   0.00   1.50   1.07 
 84-110 0.214 0.275 0.424 0.061 0.275   0.10   1.41   7.80   0.00   1.50   0.71 
110-125 0.209 0.312 0.438 0.103 0.312   0.00   1.44   8.00   0.00   1.50   0.35 
                                                                                
TOT-125  26.9  42.3  55.9  15.5  35.2  <--cm   -  kg/ha-->   28.7   24.1 302408 
SOIL ALBEDO    : 0.12      EVAPORATION LIMIT :10.00         MIN. FACTOR  : 1.00 
RUNOFF CURVE # : 0.75      DRAINAGE RATE     : 0.25         FERT. FACTOR : 1.00 
                                                                                
 Soybean    CULTIVAR :UY0141-GM 4 URUGUAY       ECOTYPE :INDETE                 
 CSDVAR :13.39  PPSEN  : 0.29  EMG-FLW:20.80  FLW-FSD:18.00  FSD-PHM : 36.00    
 WTPSD  :0.200  SDPDVR : 1.70  SDFDUR :26.00  PODDUR :10.00  XFRUIT  :  1.00    
 THRESH : 77.0  SDPRO  :0.405  SDLIP   : 0.205                                  


   PLANT COMPONENT  HARVEST     LOST*   TOTAL  BALANCE
   ---------------  -------- kg[N]/ha -------  -------
   Leaf N              1.17    22.94    24.11
   Stem N              7.48     3.94    11.42
   Shell N            19.06    21.98    41.04
   Seed N            203.57     0.00   203.57
   Root N              6.25     6.00    12.25
   Nodule N            2.07     3.72     5.79
   Total N           239.60    58.58   298.18
   N leakage                            17.94
   TOTAL N                                      316.12


   N INPUTS TO SYSTEM                kg[N]/ha
   ------------------                --------
   Seed N At Planting                    0.68
   N2 Fixed                            139.72
   N Uptake from Soil                  175.73
   TOTAL N                                      316.14

   * Lost due to senescence, freeze, pest or disease damage.

*******************************************************************************

*DSSAT Cropping System Model Ver. 4.6.1.000 -release      NOV 01, 2016; 12:10:37
                                                                                
*RUN   5        : UYSB                      CRGRO046 UYSB1026    1              
 MODEL          : CRGRO046 - Soybean                                            
 EXPERIMENT     : UYSB1026 SN late to create DSS                                
 DATA PATH      :                                                               
 TREATMENT  1   : UYSB                      CRGRO046                            
                                                                                
                                                                                
 CROP           : Soybean          CULTIVAR : GM 4 URUGUAY     ECOTYPE :INDETE  
 STARTING DATE  : OCT 30 1994                                                   
 PLANTING DATE  : NOV  2 1994        PLANTS/m2 :  7.0     ROW SPACING :  15.cm  
 WEATHER        : UYTA9401                                                      
 SOIL           : UYSS0N2002     TEXTURE : -99   -  N20-02    SNIA CLAY RISS    
 SOIL INITIAL C : DEPTH:125cm EXTR. H2O:154.7mm  NO3: 28.7kg/ha  NH4: 24.1kg/ha 
 WATER BALANCE  : AUTOMATIC IRRIGATION - REFILL PROFILE                         
 IRRIGATION     : AUTOMATIC - PLANTING -> MATURITY [ SOIL DEPTH: 0.30m 50.%]    
 NITROGEN BAL.  : SOIL-N, N-UPTAKE & DYNAMIC N-FIXATION SIMULATION              
 N-FERTILIZER   : NO N-FERTILIZER APPLIED                                       
 RESIDUE/MANURE : INITIAL :     0 kg/ha ;       0 kg/ha IN     0 APPLICATIONS   
 ENVIRONM. OPT. : DAYL=    0.00  SRAD=    0.00  TMAX=    0.00  TMIN=    0.00    
                  RAIN=    0.00  CO2 =    0.00  DEW =    0.00  WIND=    0.00    
 SIMULATION OPT : WATER   :Y  NITROGEN:Y  N-FIX:Y  PHOSPH :N  PESTS  :N         
                  PHOTO   :C  ET      :R  INFIL:S  HYDROL :R  SOM    :G         
                  CO2 359ppm  NSWIT   :1  EVAP :S  SOIL   :2  STEMP  :D         
 MANAGEMENT OPT : PLANTING:R  IRRIG   :A  FERT :N  RESIDUE:N  HARVEST:M         
                  WEATHER :M  TILLAGE :N                                        
                                                                                
*SUMMARY OF SOIL AND GENETIC INPUT PARAMETERS                                   
                                                                                
   SOIL LOWER UPPER   SAT  EXTR  INIT   ROOT   BULK     pH    NO3    NH4    ORG 
  DEPTH LIMIT LIMIT    SW    SW    SW   DIST   DENS                          C  
   cm   cm3/cm3    cm3/cm3    cm3/cm3         g/cm3         ugN/g  ugN/g     %  
------------------------------------------------------------------------------- 
  0-  5 0.215 0.440 0.484 0.225 0.282   1.00   1.05   0.40   5.00   1.50   4.64 
  5- 15 0.215 0.440 0.484 0.225 0.282   1.00   1.05   0.40   5.00   1.50   4.64 
 15- 30 0.215 0.440 0.484 0.225 0.282   1.00   1.05   0.40   5.00   1.50   4.64 
 30- 41 0.219 0.365 0.457 0.146 0.262   0.40   1.22   6.80   4.60   1.50   2.74 
 41- 53 0.219 0.365 0.457 0.146 0.262   0.40   1.22   6.80   4.60   1.50   2.74 
 53- 63 0.215 0.287 0.429 0.072 0.287   0.10   1.38   7.30   0.00   1.50   1.07 
 63- 74 0.215 0.287 0.429 0.072 0.287   0.10   1.38   7.30   0.00   1.50   1.07 
 74- 84 0.215 0.287 0.429 0.072 0.287   0.10   1.38   7.30   0.00   1.50   1.07 
 84-110 0.214 0.275 0.424 0.061 0.275   0.10   1.41   7.80   0.00   1.50   0.71 
110-125 0.209 0.312 0.438 0.103 0.312   0.00   1.44   8.00   0.00   1.50   0.35 
                                                                                
TOT-125  26.9  42.3  55.9  15.5  35.2  <--cm   -  kg/ha-->   28.7   24.1 302408 
SOIL ALBEDO    : 0.12      EVAPORATION LIMIT :10.00         MIN. FACTOR  : 1.00 
RUNOFF CURVE # : 0.75      DRAINAGE RATE     : 0.25         FERT. FACTOR : 1.00 
                                                                                
 Soybean    CULTIVAR :UY0141-GM 4 URUGUAY       ECOTYPE :INDETE                 
 CSDVAR :13.39  PPSEN  : 0.29  EMG-FLW:20.80  FLW-FSD:18.00  FSD-PHM : 36.00    
 WTPSD  :0.200  SDPDVR : 1.70  SDFDUR :26.00  PODDUR :10.00  XFRUIT  :  1.00    
 THRESH : 77.0  SDPRO  :0.405  SDLIP   : 0.205                                  


   PLANT COMPONENT  HARVEST     LOST*   TOTAL  BALANCE
   ---------------  -------- kg[N]/ha -------  -------
   Leaf N              1.04    19.76    20.80
   Stem N              6.22     3.40     9.62
   Shell N            20.62    25.84    46.46
   Seed N            212.55     0.00   212.55
   Root N              4.91     6.02    10.94
   Nodule N            2.49     3.89     6.37
   Total N           247.84    58.90   306.74
   N leakage                            16.35
   TOTAL N                                      323.08


   N INPUTS TO SYSTEM                kg[N]/ha
   ------------------                --------
   Seed N At Planting                    0.68
   N2 Fixed                            192.08
   N Uptake from Soil                  130.34
   TOTAL N                                      323.10

   * Lost due to senescence, freeze, pest or disease damage.

*******************************************************************************

*DSSAT Cropping System Model Ver. 4.6.1.000 -release      NOV 01, 2016; 12:10:37
                                                                                
*RUN   6        : UYSB                      CRGRO046 UYSB1026    1              
 MODEL          : CRGRO046 - Soybean                                            
 EXPERIMENT     : UYSB1026 SN late to create DSS                                
 DATA PATH      :                                                               
 TREATMENT  1   : UYSB                      CRGRO046                            
                                                                                
                                                                                
 CROP           : Soybean          CULTIVAR : GM 4 URUGUAY     ECOTYPE :INDETE  
 STARTING DATE  : OCT 30 1995                                                   
 PLANTING DATE  : NOV  2 1995        PLANTS/m2 :  7.0     ROW SPACING :  15.cm  
 WEATHER        : UYTA9501                                                      
 SOIL           : UYSS0N2002     TEXTURE : -99   -  N20-02    SNIA CLAY RISS    
 SOIL INITIAL C : DEPTH:125cm EXTR. H2O:154.7mm  NO3: 28.7kg/ha  NH4: 24.1kg/ha 
 WATER BALANCE  : AUTOMATIC IRRIGATION - REFILL PROFILE                         
 IRRIGATION     : AUTOMATIC - PLANTING -> MATURITY [ SOIL DEPTH: 0.30m 50.%]    
 NITROGEN BAL.  : SOIL-N, N-UPTAKE & DYNAMIC N-FIXATION SIMULATION              
 N-FERTILIZER   : NO N-FERTILIZER APPLIED                                       
 RESIDUE/MANURE : INITIAL :     0 kg/ha ;       0 kg/ha IN     0 APPLICATIONS   
 ENVIRONM. OPT. : DAYL=    0.00  SRAD=    0.00  TMAX=    0.00  TMIN=    0.00    
                  RAIN=    0.00  CO2 =    0.00  DEW =    0.00  WIND=    0.00    
 SIMULATION OPT : WATER   :Y  NITROGEN:Y  N-FIX:Y  PHOSPH :N  PESTS  :N         
                  PHOTO   :C  ET      :R  INFIL:S  HYDROL :R  SOM    :G         
                  CO2 361ppm  NSWIT   :1  EVAP :S  SOIL   :2  STEMP  :D         
 MANAGEMENT OPT : PLANTING:R  IRRIG   :A  FERT :N  RESIDUE:N  HARVEST:M         
                  WEATHER :M  TILLAGE :N                                        
                                                                                
*SUMMARY OF SOIL AND GENETIC INPUT PARAMETERS                                   
                                                                                
   SOIL LOWER UPPER   SAT  EXTR  INIT   ROOT   BULK     pH    NO3    NH4    ORG 
  DEPTH LIMIT LIMIT    SW    SW    SW   DIST   DENS                          C  
   cm   cm3/cm3    cm3/cm3    cm3/cm3         g/cm3         ugN/g  ugN/g     %  
------------------------------------------------------------------------------- 
  0-  5 0.215 0.440 0.484 0.225 0.282   1.00   1.05   0.40   5.00   1.50   4.64 
  5- 15 0.215 0.440 0.484 0.225 0.282   1.00   1.05   0.40   5.00   1.50   4.64 
 15- 30 0.215 0.440 0.484 0.225 0.282   1.00   1.05   0.40   5.00   1.50   4.64 
 30- 41 0.219 0.365 0.457 0.146 0.262   0.40   1.22   6.80   4.60   1.50   2.74 
 41- 53 0.219 0.365 0.457 0.146 0.262   0.40   1.22   6.80   4.60   1.50   2.74 
 53- 63 0.215 0.287 0.429 0.072 0.287   0.10   1.38   7.30   0.00   1.50   1.07 
 63- 74 0.215 0.287 0.429 0.072 0.287   0.10   1.38   7.30   0.00   1.50   1.07 
 74- 84 0.215 0.287 0.429 0.072 0.287   0.10   1.38   7.30   0.00   1.50   1.07 
 84-110 0.214 0.275 0.424 0.061 0.275   0.10   1.41   7.80   0.00   1.50   0.71 
110-125 0.209 0.312 0.438 0.103 0.312   0.00   1.44   8.00   0.00   1.50   0.35 
                                                                                
TOT-125  26.9  42.3  55.9  15.5  35.2  <--cm   -  kg/ha-->   28.7   24.1 302408 
SOIL ALBEDO    : 0.12      EVAPORATION LIMIT :10.00         MIN. FACTOR  : 1.00 
RUNOFF CURVE # : 0.75      DRAINAGE RATE     : 0.25         FERT. FACTOR : 1.00 
                                                                                
 Soybean    CULTIVAR :UY0141-GM 4 URUGUAY       ECOTYPE :INDETE                 
 CSDVAR :13.39  PPSEN  : 0.29  EMG-FLW:20.80  FLW-FSD:18.00  FSD-PHM : 36.00    
 WTPSD  :0.200  SDPDVR : 1.70  SDFDUR :26.00  PODDUR :10.00  XFRUIT  :  1.00    
 THRESH : 77.0  SDPRO  :0.405  SDLIP   : 0.205                                  


   PLANT COMPONENT  HARVEST     LOST*   TOTAL  BALANCE
   ---------------  -------- kg[N]/ha -------  -------
   Leaf N              1.24    24.18    25.42
   Stem N              7.59     4.16    11.75
   Shell N            19.66    21.34    41.01
   Seed N            235.03     0.00   235.03
   Root N              5.98     7.15    13.13
   Nodule N            2.64     3.60     6.24
   Total N           272.15    60.43   332.58
   N leakage                            18.72
   TOTAL N                                      351.31


   N INPUTS TO SYSTEM                kg[N]/ha
   ------------------                --------
   Seed N At Planting                    0.68
   N2 Fixed                            175.96
   N Uptake from Soil                  174.68
   TOTAL N                                      351.33

   * Lost due to senescence, freeze, pest or disease damage.

*******************************************************************************

*DSSAT Cropping System Model Ver. 4.6.1.000 -release      NOV 01, 2016; 12:10:37
                                                                                
*RUN   7        : UYSB                      CRGRO046 UYSB1026    1              
 MODEL          : CRGRO046 - Soybean                                            
 EXPERIMENT     : UYSB1026 SN late to create DSS                                
 DATA PATH      :                                                               
 TREATMENT  1   : UYSB                      CRGRO046                            
                                                                                
                                                                                
 CROP           : Soybean          CULTIVAR : GM 4 URUGUAY     ECOTYPE :INDETE  
 STARTING DATE  : OCT 29 1996                                                   
 PLANTING DATE  : NOV  1 1996        PLANTS/m2 :  7.0     ROW SPACING :  15.cm  
 WEATHER        : UYTA9601                                                      
 SOIL           : UYSS0N2002     TEXTURE : -99   -  N20-02    SNIA CLAY RISS    
 SOIL INITIAL C : DEPTH:125cm EXTR. H2O:154.7mm  NO3: 28.7kg/ha  NH4: 24.1kg/ha 
 WATER BALANCE  : AUTOMATIC IRRIGATION - REFILL PROFILE                         
 IRRIGATION     : AUTOMATIC - PLANTING -> MATURITY [ SOIL DEPTH: 0.30m 50.%]    
 NITROGEN BAL.  : SOIL-N, N-UPTAKE & DYNAMIC N-FIXATION SIMULATION              
 N-FERTILIZER   : NO N-FERTILIZER APPLIED                                       
 RESIDUE/MANURE : INITIAL :     0 kg/ha ;       0 kg/ha IN     0 APPLICATIONS   
 ENVIRONM. OPT. : DAYL=    0.00  SRAD=    0.00  TMAX=    0.00  TMIN=    0.00    
                  RAIN=    0.00  CO2 =    0.00  DEW =    0.00  WIND=    0.00    
 SIMULATION OPT : WATER   :Y  NITROGEN:Y  N-FIX:Y  PHOSPH :N  PESTS  :N         
                  PHOTO   :C  ET      :R  INFIL:S  HYDROL :R  SOM    :G         
                  CO2 363ppm  NSWIT   :1  EVAP :S  SOIL   :2  STEMP  :D         
 MANAGEMENT OPT : PLANTING:R  IRRIG   :A  FERT :N  RESIDUE:N  HARVEST:M         
                  WEATHER :M  TILLAGE :N                                        
                                                                                
*SUMMARY OF SOIL AND GENETIC INPUT PARAMETERS                                   
                                                                                
   SOIL LOWER UPPER   SAT  EXTR  INIT   ROOT   BULK     pH    NO3    NH4    ORG 
  DEPTH LIMIT LIMIT    SW    SW    SW   DIST   DENS                          C  
   cm   cm3/cm3    cm3/cm3    cm3/cm3         g/cm3         ugN/g  ugN/g     %  
------------------------------------------------------------------------------- 
  0-  5 0.215 0.440 0.484 0.225 0.282   1.00   1.05   0.40   5.00   1.50   4.64 
  5- 15 0.215 0.440 0.484 0.225 0.282   1.00   1.05   0.40   5.00   1.50   4.64 
 15- 30 0.215 0.440 0.484 0.225 0.282   1.00   1.05   0.40   5.00   1.50   4.64 
 30- 41 0.219 0.365 0.457 0.146 0.262   0.40   1.22   6.80   4.60   1.50   2.74 
 41- 53 0.219 0.365 0.457 0.146 0.262   0.40   1.22   6.80   4.60   1.50   2.74 
 53- 63 0.215 0.287 0.429 0.072 0.287   0.10   1.38   7.30   0.00   1.50   1.07 
 63- 74 0.215 0.287 0.429 0.072 0.287   0.10   1.38   7.30   0.00   1.50   1.07 
 74- 84 0.215 0.287 0.429 0.072 0.287   0.10   1.38   7.30   0.00   1.50   1.07 
 84-110 0.214 0.275 0.424 0.061 0.275   0.10   1.41   7.80   0.00   1.50   0.71 
110-125 0.209 0.312 0.438 0.103 0.312   0.00   1.44   8.00   0.00   1.50   0.35 
                                                                                
TOT-125  26.9  42.3  55.9  15.5  35.2  <--cm   -  kg/ha-->   28.7   24.1 302408 
SOIL ALBEDO    : 0.12      EVAPORATION LIMIT :10.00         MIN. FACTOR  : 1.00 
RUNOFF CURVE # : 0.75      DRAINAGE RATE     : 0.25         FERT. FACTOR : 1.00 
                                                                                
 Soybean    CULTIVAR :UY0141-GM 4 URUGUAY       ECOTYPE :INDETE                 
 CSDVAR :13.39  PPSEN  : 0.29  EMG-FLW:20.80  FLW-FSD:18.00  FSD-PHM : 36.00    
 WTPSD  :0.200  SDPDVR : 1.70  SDFDUR :26.00  PODDUR :10.00  XFRUIT  :  1.00    
 THRESH : 77.0  SDPRO  :0.405  SDLIP   : 0.205                                  


   PLANT COMPONENT  HARVEST     LOST*   TOTAL  BALANCE
   ---------------  -------- kg[N]/ha -------  -------
   Leaf N              1.11    21.65    22.77
   Stem N              6.93     3.74    10.67
   Shell N            20.86    23.29    44.15
   Seed N            213.56     0.00   213.56
   Root N              5.28     6.48    11.76
   Nodule N            1.57     4.99     6.56
   Total N           249.31    60.15   309.46
   N leakage                            20.31
   TOTAL N                                      329.77


   N INPUTS TO SYSTEM                kg[N]/ha
   ------------------                --------
   Seed N At Planting                    0.68
   N2 Fixed                            156.83
   N Uptake from Soil                  172.28
   TOTAL N                                      329.79

   * Lost due to senescence, freeze, pest or disease damage.

*******************************************************************************

*DSSAT Cropping System Model Ver. 4.6.1.000 -release      NOV 01, 2016; 12:10:37
                                                                                
*RUN   8        : UYSB                      CRGRO046 UYSB1026    1              
 MODEL          : CRGRO046 - Soybean                                            
 EXPERIMENT     : UYSB1026 SN late to create DSS                                
 DATA PATH      :                                                               
 TREATMENT  1   : UYSB                      CRGRO046                            
                                                                                
                                                                                
 CROP           : Soybean          CULTIVAR : GM 4 URUGUAY     ECOTYPE :INDETE  
 STARTING DATE  : OCT 30 1997                                                   
 PLANTING DATE  : NOV  2 1997        PLANTS/m2 :  7.0     ROW SPACING :  15.cm  
 WEATHER        : UYTA9701                                                      
 SOIL           : UYSS0N2002     TEXTURE : -99   -  N20-02    SNIA CLAY RISS    
 SOIL INITIAL C : DEPTH:125cm EXTR. H2O:154.7mm  NO3: 28.7kg/ha  NH4: 24.1kg/ha 
 WATER BALANCE  : AUTOMATIC IRRIGATION - REFILL PROFILE                         
 IRRIGATION     : AUTOMATIC - PLANTING -> MATURITY [ SOIL DEPTH: 0.30m 50.%]    
 NITROGEN BAL.  : SOIL-N, N-UPTAKE & DYNAMIC N-FIXATION SIMULATION              
 N-FERTILIZER   : NO N-FERTILIZER APPLIED                                       
 RESIDUE/MANURE : INITIAL :     0 kg/ha ;       0 kg/ha IN     0 APPLICATIONS   
 ENVIRONM. OPT. : DAYL=    0.00  SRAD=    0.00  TMAX=    0.00  TMIN=    0.00    
                  RAIN=    0.00  CO2 =    0.00  DEW =    0.00  WIND=    0.00    
 SIMULATION OPT : WATER   :Y  NITROGEN:Y  N-FIX:Y  PHOSPH :N  PESTS  :N         
                  PHOTO   :C  ET      :R  INFIL:S  HYDROL :R  SOM    :G         
                  CO2 364ppm  NSWIT   :1  EVAP :S  SOIL   :2  STEMP  :D         
 MANAGEMENT OPT : PLANTING:R  IRRIG   :A  FERT :N  RESIDUE:N  HARVEST:M         
                  WEATHER :M  TILLAGE :N                                        
                                                                                
*SUMMARY OF SOIL AND GENETIC INPUT PARAMETERS                                   
                                                                                
   SOIL LOWER UPPER   SAT  EXTR  INIT   ROOT   BULK     pH    NO3    NH4    ORG 
  DEPTH LIMIT LIMIT    SW    SW    SW   DIST   DENS                          C  
   cm   cm3/cm3    cm3/cm3    cm3/cm3         g/cm3         ugN/g  ugN/g     %  
------------------------------------------------------------------------------- 
  0-  5 0.215 0.440 0.484 0.225 0.282   1.00   1.05   0.40   5.00   1.50   4.64 
  5- 15 0.215 0.440 0.484 0.225 0.282   1.00   1.05   0.40   5.00   1.50   4.64 
 15- 30 0.215 0.440 0.484 0.225 0.282   1.00   1.05   0.40   5.00   1.50   4.64 
 30- 41 0.219 0.365 0.457 0.146 0.262   0.40   1.22   6.80   4.60   1.50   2.74 
 41- 53 0.219 0.365 0.457 0.146 0.262   0.40   1.22   6.80   4.60   1.50   2.74 
 53- 63 0.215 0.287 0.429 0.072 0.287   0.10   1.38   7.30   0.00   1.50   1.07 
 63- 74 0.215 0.287 0.429 0.072 0.287   0.10   1.38   7.30   0.00   1.50   1.07 
 74- 84 0.215 0.287 0.429 0.072 0.287   0.10   1.38   7.30   0.00   1.50   1.07 
 84-110 0.214 0.275 0.424 0.061 0.275   0.10   1.41   7.80   0.00   1.50   0.71 
110-125 0.209 0.312 0.438 0.103 0.312   0.00   1.44   8.00   0.00   1.50   0.35 
                                                                                
TOT-125  26.9  42.3  55.9  15.5  35.2  <--cm   -  kg/ha-->   28.7   24.1 302408 
SOIL ALBEDO    : 0.12      EVAPORATION LIMIT :10.00         MIN. FACTOR  : 1.00 
RUNOFF CURVE # : 0.75      DRAINAGE RATE     : 0.25         FERT. FACTOR : 1.00 
                                                                                
 Soybean    CULTIVAR :UY0141-GM 4 URUGUAY       ECOTYPE :INDETE                 
 CSDVAR :13.39  PPSEN  : 0.29  EMG-FLW:20.80  FLW-FSD:18.00  FSD-PHM : 36.00    
 WTPSD  :0.200  SDPDVR : 1.70  SDFDUR :26.00  PODDUR :10.00  XFRUIT  :  1.00    
 THRESH : 77.0  SDPRO  :0.405  SDLIP   : 0.205                                  


   PLANT COMPONENT  HARVEST     LOST*   TOTAL  BALANCE
   ---------------  -------- kg[N]/ha -------  -------
   Leaf N              0.93    18.11    19.04
   Stem N              5.96     3.05     9.01
   Shell N            15.75    19.24    34.99
   Seed N            193.85     0.00   193.85
   Root N              3.91     6.69    10.60
   Nodule N            1.72     3.42     5.13
   Total N           222.12    50.51   272.63
   N leakage                            11.81
   TOTAL N                                      284.44


   N INPUTS TO SYSTEM                kg[N]/ha
   ------------------                --------
   Seed N At Planting                    0.68
   N2 Fixed                            124.02
   N Uptake from Soil                  159.76
   TOTAL N                                      284.46

   * Lost due to senescence, freeze, pest or disease damage.

*******************************************************************************

*DSSAT Cropping System Model Ver. 4.6.1.000 -release      NOV 01, 2016; 12:10:37
                                                                                
*RUN   9        : UYSB                      CRGRO046 UYSB1026    1              
 MODEL          : CRGRO046 - Soybean                                            
 EXPERIMENT     : UYSB1026 SN late to create DSS                                
 DATA PATH      :                                                               
 TREATMENT  1   : UYSB                      CRGRO046                            
                                                                                
                                                                                
 CROP           : Soybean          CULTIVAR : GM 4 URUGUAY     ECOTYPE :INDETE  
 STARTING DATE  : OCT 30 1998                                                   
 PLANTING DATE  : NOV  2 1998        PLANTS/m2 :  7.0     ROW SPACING :  15.cm  
 WEATHER        : UYTA9801                                                      
 SOIL           : UYSS0N2002     TEXTURE : -99   -  N20-02    SNIA CLAY RISS    
 SOIL INITIAL C : DEPTH:125cm EXTR. H2O:154.7mm  NO3: 28.7kg/ha  NH4: 24.1kg/ha 
 WATER BALANCE  : AUTOMATIC IRRIGATION - REFILL PROFILE                         
 IRRIGATION     : AUTOMATIC - PLANTING -> MATURITY [ SOIL DEPTH: 0.30m 50.%]    
 NITROGEN BAL.  : SOIL-N, N-UPTAKE & DYNAMIC N-FIXATION SIMULATION              
 N-FERTILIZER   : NO N-FERTILIZER APPLIED                                       
 RESIDUE/MANURE : INITIAL :     0 kg/ha ;       0 kg/ha IN     0 APPLICATIONS   
 ENVIRONM. OPT. : DAYL=    0.00  SRAD=    0.00  TMAX=    0.00  TMIN=    0.00    
                  RAIN=    0.00  CO2 =    0.00  DEW =    0.00  WIND=    0.00    
 SIMULATION OPT : WATER   :Y  NITROGEN:Y  N-FIX:Y  PHOSPH :N  PESTS  :N         
                  PHOTO   :C  ET      :R  INFIL:S  HYDROL :R  SOM    :G         
                  CO2 367ppm  NSWIT   :1  EVAP :S  SOIL   :2  STEMP  :D         
 MANAGEMENT OPT : PLANTING:R  IRRIG   :A  FERT :N  RESIDUE:N  HARVEST:M         
                  WEATHER :M  TILLAGE :N                                        
                                                                                
*SUMMARY OF SOIL AND GENETIC INPUT PARAMETERS                                   
                                                                                
   SOIL LOWER UPPER   SAT  EXTR  INIT   ROOT   BULK     pH    NO3    NH4    ORG 
  DEPTH LIMIT LIMIT    SW    SW    SW   DIST   DENS                          C  
   cm   cm3/cm3    cm3/cm3    cm3/cm3         g/cm3         ugN/g  ugN/g     %  
------------------------------------------------------------------------------- 
  0-  5 0.215 0.440 0.484 0.225 0.282   1.00   1.05   0.40   5.00   1.50   4.64 
  5- 15 0.215 0.440 0.484 0.225 0.282   1.00   1.05   0.40   5.00   1.50   4.64 
 15- 30 0.215 0.440 0.484 0.225 0.282   1.00   1.05   0.40   5.00   1.50   4.64 
 30- 41 0.219 0.365 0.457 0.146 0.262   0.40   1.22   6.80   4.60   1.50   2.74 
 41- 53 0.219 0.365 0.457 0.146 0.262   0.40   1.22   6.80   4.60   1.50   2.74 
 53- 63 0.215 0.287 0.429 0.072 0.287   0.10   1.38   7.30   0.00   1.50   1.07 
 63- 74 0.215 0.287 0.429 0.072 0.287   0.10   1.38   7.30   0.00   1.50   1.07 
 74- 84 0.215 0.287 0.429 0.072 0.287   0.10   1.38   7.30   0.00   1.50   1.07 
 84-110 0.214 0.275 0.424 0.061 0.275   0.10   1.41   7.80   0.00   1.50   0.71 
110-125 0.209 0.312 0.438 0.103 0.312   0.00   1.44   8.00   0.00   1.50   0.35 
                                                                                
TOT-125  26.9  42.3  55.9  15.5  35.2  <--cm   -  kg/ha-->   28.7   24.1 302408 
SOIL ALBEDO    : 0.12      EVAPORATION LIMIT :10.00         MIN. FACTOR  : 1.00 
RUNOFF CURVE # : 0.75      DRAINAGE RATE     : 0.25         FERT. FACTOR : 1.00 
                                                                                
 Soybean    CULTIVAR :UY0141-GM 4 URUGUAY       ECOTYPE :INDETE                 
 CSDVAR :13.39  PPSEN  : 0.29  EMG-FLW:20.80  FLW-FSD:18.00  FSD-PHM : 36.00    
 WTPSD  :0.200  SDPDVR : 1.70  SDFDUR :26.00  PODDUR :10.00  XFRUIT  :  1.00    
 THRESH : 77.0  SDPRO  :0.405  SDLIP   : 0.205                                  


   PLANT COMPONENT  HARVEST     LOST*   TOTAL  BALANCE
   ---------------  -------- kg[N]/ha -------  -------
   Leaf N              1.32    25.47    26.79
   Stem N              8.33     4.40    12.73
   Shell N            21.84    24.40    46.23
   Seed N            237.85     0.00   237.85
   Root N              6.73     6.99    13.71
   Nodule N            2.86     3.48     6.34
   Total N           278.92    64.74   343.66
   N leakage                            20.82
   TOTAL N                                      364.48


   N INPUTS TO SYSTEM                kg[N]/ha
   ------------------                --------
   Seed N At Planting                    0.68
   N2 Fixed                            209.16
   N Uptake from Soil                  154.66
   TOTAL N                                      364.49

   * Lost due to senescence, freeze, pest or disease damage.

*******************************************************************************

*DSSAT Cropping System Model Ver. 4.6.1.000 -release      NOV 01, 2016; 12:10:37
                                                                                
*RUN  10        : UYSB                      CRGRO046 UYSB1026    1              
 MODEL          : CRGRO046 - Soybean                                            
 EXPERIMENT     : UYSB1026 SN late to create DSS                                
 DATA PATH      :                                                               
 TREATMENT  1   : UYSB                      CRGRO046                            
                                                                                
                                                                                
 CROP           : Soybean          CULTIVAR : GM 4 URUGUAY     ECOTYPE :INDETE  
 STARTING DATE  : OCT 30 1999                                                   
 PLANTING DATE  : NOV  2 1999        PLANTS/m2 :  7.0     ROW SPACING :  15.cm  
 WEATHER        : UYTA9901                                                      
 SOIL           : UYSS0N2002     TEXTURE : -99   -  N20-02    SNIA CLAY RISS    
 SOIL INITIAL C : DEPTH:125cm EXTR. H2O:154.7mm  NO3: 28.7kg/ha  NH4: 24.1kg/ha 
 WATER BALANCE  : AUTOMATIC IRRIGATION - REFILL PROFILE                         
 IRRIGATION     : AUTOMATIC - PLANTING -> MATURITY [ SOIL DEPTH: 0.30m 50.%]    
 NITROGEN BAL.  : SOIL-N, N-UPTAKE & DYNAMIC N-FIXATION SIMULATION              
 N-FERTILIZER   : NO N-FERTILIZER APPLIED                                       
 RESIDUE/MANURE : INITIAL :     0 kg/ha ;       0 kg/ha IN     0 APPLICATIONS   
 ENVIRONM. OPT. : DAYL=    0.00  SRAD=    0.00  TMAX=    0.00  TMIN=    0.00    
                  RAIN=    0.00  CO2 =    0.00  DEW =    0.00  WIND=    0.00    
 SIMULATION OPT : WATER   :Y  NITROGEN:Y  N-FIX:Y  PHOSPH :N  PESTS  :N         
                  PHOTO   :C  ET      :R  INFIL:S  HYDROL :R  SOM    :G         
                  CO2 369ppm  NSWIT   :1  EVAP :S  SOIL   :2  STEMP  :D         
 MANAGEMENT OPT : PLANTING:R  IRRIG   :A  FERT :N  RESIDUE:N  HARVEST:M         
                  WEATHER :M  TILLAGE :N                                        
                                                                                
*SUMMARY OF SOIL AND GENETIC INPUT PARAMETERS                                   
                                                                                
   SOIL LOWER UPPER   SAT  EXTR  INIT   ROOT   BULK     pH    NO3    NH4    ORG 
  DEPTH LIMIT LIMIT    SW    SW    SW   DIST   DENS                          C  
   cm   cm3/cm3    cm3/cm3    cm3/cm3         g/cm3         ugN/g  ugN/g     %  
------------------------------------------------------------------------------- 
  0-  5 0.215 0.440 0.484 0.225 0.282   1.00   1.05   0.40   5.00   1.50   4.64 
  5- 15 0.215 0.440 0.484 0.225 0.282   1.00   1.05   0.40   5.00   1.50   4.64 
 15- 30 0.215 0.440 0.484 0.225 0.282   1.00   1.05   0.40   5.00   1.50   4.64 
 30- 41 0.219 0.365 0.457 0.146 0.262   0.40   1.22   6.80   4.60   1.50   2.74 
 41- 53 0.219 0.365 0.457 0.146 0.262   0.40   1.22   6.80   4.60   1.50   2.74 
 53- 63 0.215 0.287 0.429 0.072 0.287   0.10   1.38   7.30   0.00   1.50   1.07 
 63- 74 0.215 0.287 0.429 0.072 0.287   0.10   1.38   7.30   0.00   1.50   1.07 
 74- 84 0.215 0.287 0.429 0.072 0.287   0.10   1.38   7.30   0.00   1.50   1.07 
 84-110 0.214 0.275 0.424 0.061 0.275   0.10   1.41   7.80   0.00   1.50   0.71 
110-125 0.209 0.312 0.438 0.103 0.312   0.00   1.44   8.00   0.00   1.50   0.35 
                                                                                
TOT-125  26.9  42.3  55.9  15.5  35.2  <--cm   -  kg/ha-->   28.7   24.1 302408 
SOIL ALBEDO    : 0.12      EVAPORATION LIMIT :10.00         MIN. FACTOR  : 1.00 
RUNOFF CURVE # : 0.75      DRAINAGE RATE     : 0.25         FERT. FACTOR : 1.00 
                                                                                
 Soybean    CULTIVAR :UY0141-GM 4 URUGUAY       ECOTYPE :INDETE                 
 CSDVAR :13.39  PPSEN  : 0.29  EMG-FLW:20.80  FLW-FSD:18.00  FSD-PHM : 36.00    
 WTPSD  :0.200  SDPDVR : 1.70  SDFDUR :26.00  PODDUR :10.00  XFRUIT  :  1.00    
 THRESH : 77.0  SDPRO  :0.405  SDLIP   : 0.205                                  


   PLANT COMPONENT  HARVEST     LOST*   TOTAL  BALANCE
   ---------------  -------- kg[N]/ha -------  -------
   Leaf N              1.33    25.99    27.32
   Stem N              8.32     4.50    12.82
   Shell N            20.73    21.13    41.87
   Seed N            247.40     0.00   247.40
   Root N              6.82     7.90    14.72
   Nodule N            2.52     4.89     7.41
   Total N           287.13    64.42   351.55
   N leakage                            18.83
   TOTAL N                                      370.37


   N INPUTS TO SYSTEM                kg[N]/ha
   ------------------                --------
   Seed N At Planting                    0.68
   N2 Fixed                            219.87
   N Uptake from Soil                  149.85
   TOTAL N                                      370.40

   * Lost due to senescence, freeze, pest or disease damage.

*******************************************************************************

*DSSAT Cropping System Model Ver. 4.6.1.000 -release      NOV 01, 2016; 12:10:37
                                                                                
*RUN  11        : UYSB                      CRGRO046 UYSB1026    1              
 MODEL          : CRGRO046 - Soybean                                            
 EXPERIMENT     : UYSB1026 SN late to create DSS                                
 DATA PATH      :                                                               
 TREATMENT  1   : UYSB                      CRGRO046                            
                                                                                
                                                                                
 CROP           : Soybean          CULTIVAR : GM 4 URUGUAY     ECOTYPE :INDETE  
 STARTING DATE  : OCT 29 2000                                                   
 PLANTING DATE  : NOV  1 2000        PLANTS/m2 :  7.0     ROW SPACING :  15.cm  
 WEATHER        : UYTA0001                                                      
 SOIL           : UYSS0N2002     TEXTURE : -99   -  N20-02    SNIA CLAY RISS    
 SOIL INITIAL C : DEPTH:125cm EXTR. H2O:154.7mm  NO3: 28.7kg/ha  NH4: 24.1kg/ha 
 WATER BALANCE  : AUTOMATIC IRRIGATION - REFILL PROFILE                         
 IRRIGATION     : AUTOMATIC - PLANTING -> MATURITY [ SOIL DEPTH: 0.30m 50.%]    
 NITROGEN BAL.  : SOIL-N, N-UPTAKE & DYNAMIC N-FIXATION SIMULATION              
 N-FERTILIZER   : NO N-FERTILIZER APPLIED                                       
 RESIDUE/MANURE : INITIAL :     0 kg/ha ;       0 kg/ha IN     0 APPLICATIONS   
 ENVIRONM. OPT. : DAYL=    0.00  SRAD=    0.00  TMAX=    0.00  TMIN=    0.00    
                  RAIN=    0.00  CO2 =    0.00  DEW =    0.00  WIND=    0.00    
 SIMULATION OPT : WATER   :Y  NITROGEN:Y  N-FIX:Y  PHOSPH :N  PESTS  :N         
                  PHOTO   :C  ET      :R  INFIL:S  HYDROL :R  SOM    :G         
                  CO2 370ppm  NSWIT   :1  EVAP :S  SOIL   :2  STEMP  :D         
 MANAGEMENT OPT : PLANTING:R  IRRIG   :A  FERT :N  RESIDUE:N  HARVEST:M         
                  WEATHER :M  TILLAGE :N                                        
                                                                                
*SUMMARY OF SOIL AND GENETIC INPUT PARAMETERS                                   
                                                                                
   SOIL LOWER UPPER   SAT  EXTR  INIT   ROOT   BULK     pH    NO3    NH4    ORG 
  DEPTH LIMIT LIMIT    SW    SW    SW   DIST   DENS                          C  
   cm   cm3/cm3    cm3/cm3    cm3/cm3         g/cm3         ugN/g  ugN/g     %  
------------------------------------------------------------------------------- 
  0-  5 0.215 0.440 0.484 0.225 0.282   1.00   1.05   0.40   5.00   1.50   4.64 
  5- 15 0.215 0.440 0.484 0.225 0.282   1.00   1.05   0.40   5.00   1.50   4.64 
 15- 30 0.215 0.440 0.484 0.225 0.282   1.00   1.05   0.40   5.00   1.50   4.64 
 30- 41 0.219 0.365 0.457 0.146 0.262   0.40   1.22   6.80   4.60   1.50   2.74 
 41- 53 0.219 0.365 0.457 0.146 0.262   0.40   1.22   6.80   4.60   1.50   2.74 
 53- 63 0.215 0.287 0.429 0.072 0.287   0.10   1.38   7.30   0.00   1.50   1.07 
 63- 74 0.215 0.287 0.429 0.072 0.287   0.10   1.38   7.30   0.00   1.50   1.07 
 74- 84 0.215 0.287 0.429 0.072 0.287   0.10   1.38   7.30   0.00   1.50   1.07 
 84-110 0.214 0.275 0.424 0.061 0.275   0.10   1.41   7.80   0.00   1.50   0.71 
110-125 0.209 0.312 0.438 0.103 0.312   0.00   1.44   8.00   0.00   1.50   0.35 
                                                                                
TOT-125  26.9  42.3  55.9  15.5  35.2  <--cm   -  kg/ha-->   28.7   24.1 302408 
SOIL ALBEDO    : 0.12      EVAPORATION LIMIT :10.00         MIN. FACTOR  : 1.00 
RUNOFF CURVE # : 0.75      DRAINAGE RATE     : 0.25         FERT. FACTOR : 1.00 
                                                                                
 Soybean    CULTIVAR :UY0141-GM 4 URUGUAY       ECOTYPE :INDETE                 
 CSDVAR :13.39  PPSEN  : 0.29  EMG-FLW:20.80  FLW-FSD:18.00  FSD-PHM : 36.00    
 WTPSD  :0.200  SDPDVR : 1.70  SDFDUR :26.00  PODDUR :10.00  XFRUIT  :  1.00    
 THRESH : 77.0  SDPRO  :0.405  SDLIP   : 0.205                                  


   PLANT COMPONENT  HARVEST     LOST*   TOTAL  BALANCE
   ---------------  -------- kg[N]/ha -------  -------
   Leaf N              1.15    22.20    23.34
   Stem N              7.02     3.82    10.84
   Shell N            20.48    21.48    41.96
   Seed N            221.12     0.00   221.12
   Root N              5.70     6.55    12.25
   Nodule N            2.70     3.78     6.49
   Total N           258.18    57.83   316.01
   N leakage                            18.30
   TOTAL N                                      334.30


   N INPUTS TO SYSTEM                kg[N]/ha
   ------------------                --------
   Seed N At Planting                    0.68
   N2 Fixed                            176.75
   N Uptake from Soil                  156.89
   TOTAL N                                      334.32

   * Lost due to senescence, freeze, pest or disease damage.

*******************************************************************************

*DSSAT Cropping System Model Ver. 4.6.1.000 -release      NOV 01, 2016; 12:10:37
                                                                                
*RUN  12        : UYSB                      CRGRO046 UYSB1026    1              
 MODEL          : CRGRO046 - Soybean                                            
 EXPERIMENT     : UYSB1026 SN late to create DSS                                
 DATA PATH      :                                                               
 TREATMENT  1   : UYSB                      CRGRO046                            
                                                                                
                                                                                
 CROP           : Soybean          CULTIVAR : GM 4 URUGUAY     ECOTYPE :INDETE  
 STARTING DATE  : OCT 30 2001                                                   
 PLANTING DATE  : NOV  2 2001        PLANTS/m2 :  7.0     ROW SPACING :  15.cm  
 WEATHER        : UYTA0101                                                      
 SOIL           : UYSS0N2002     TEXTURE : -99   -  N20-02    SNIA CLAY RISS    
 SOIL INITIAL C : DEPTH:125cm EXTR. H2O:154.7mm  NO3: 28.7kg/ha  NH4: 24.1kg/ha 
 WATER BALANCE  : AUTOMATIC IRRIGATION - REFILL PROFILE                         
 IRRIGATION     : AUTOMATIC - PLANTING -> MATURITY [ SOIL DEPTH: 0.30m 50.%]    
 NITROGEN BAL.  : SOIL-N, N-UPTAKE & DYNAMIC N-FIXATION SIMULATION              
 N-FERTILIZER   : NO N-FERTILIZER APPLIED                                       
 RESIDUE/MANURE : INITIAL :     0 kg/ha ;       0 kg/ha IN     0 APPLICATIONS   
 ENVIRONM. OPT. : DAYL=    0.00  SRAD=    0.00  TMAX=    0.00  TMIN=    0.00    
                  RAIN=    0.00  CO2 =    0.00  DEW =    0.00  WIND=    0.00    
 SIMULATION OPT : WATER   :Y  NITROGEN:Y  N-FIX:Y  PHOSPH :N  PESTS  :N         
                  PHOTO   :C  ET      :R  INFIL:S  HYDROL :R  SOM    :G         
                  CO2 372ppm  NSWIT   :1  EVAP :S  SOIL   :2  STEMP  :D         
 MANAGEMENT OPT : PLANTING:R  IRRIG   :A  FERT :N  RESIDUE:N  HARVEST:M         
                  WEATHER :M  TILLAGE :N                                        
                                                                                
*SUMMARY OF SOIL AND GENETIC INPUT PARAMETERS                                   
                                                                                
   SOIL LOWER UPPER   SAT  EXTR  INIT   ROOT   BULK     pH    NO3    NH4    ORG 
  DEPTH LIMIT LIMIT    SW    SW    SW   DIST   DENS                          C  
   cm   cm3/cm3    cm3/cm3    cm3/cm3         g/cm3         ugN/g  ugN/g     %  
------------------------------------------------------------------------------- 
  0-  5 0.215 0.440 0.484 0.225 0.282   1.00   1.05   0.40   5.00   1.50   4.64 
  5- 15 0.215 0.440 0.484 0.225 0.282   1.00   1.05   0.40   5.00   1.50   4.64 
 15- 30 0.215 0.440 0.484 0.225 0.282   1.00   1.05   0.40   5.00   1.50   4.64 
 30- 41 0.219 0.365 0.457 0.146 0.262   0.40   1.22   6.80   4.60   1.50   2.74 
 41- 53 0.219 0.365 0.457 0.146 0.262   0.40   1.22   6.80   4.60   1.50   2.74 
 53- 63 0.215 0.287 0.429 0.072 0.287   0.10   1.38   7.30   0.00   1.50   1.07 
 63- 74 0.215 0.287 0.429 0.072 0.287   0.10   1.38   7.30   0.00   1.50   1.07 
 74- 84 0.215 0.287 0.429 0.072 0.287   0.10   1.38   7.30   0.00   1.50   1.07 
 84-110 0.214 0.275 0.424 0.061 0.275   0.10   1.41   7.80   0.00   1.50   0.71 
110-125 0.209 0.312 0.438 0.103 0.312   0.00   1.44   8.00   0.00   1.50   0.35 
                                                                                
TOT-125  26.9  42.3  55.9  15.5  35.2  <--cm   -  kg/ha-->   28.7   24.1 302408 
SOIL ALBEDO    : 0.12      EVAPORATION LIMIT :10.00         MIN. FACTOR  : 1.00 
RUNOFF CURVE # : 0.75      DRAINAGE RATE     : 0.25         FERT. FACTOR : 1.00 
                                                                                
 Soybean    CULTIVAR :UY0141-GM 4 URUGUAY       ECOTYPE :INDETE                 
 CSDVAR :13.39  PPSEN  : 0.29  EMG-FLW:20.80  FLW-FSD:18.00  FSD-PHM : 36.00    
 WTPSD  :0.200  SDPDVR : 1.70  SDFDUR :26.00  PODDUR :10.00  XFRUIT  :  1.00    
 THRESH : 77.0  SDPRO  :0.405  SDLIP   : 0.205                                  


   PLANT COMPONENT  HARVEST     LOST*   TOTAL  BALANCE
   ---------------  -------- kg[N]/ha -------  -------
   Leaf N              1.31    24.38    25.69
   Stem N              7.86     4.21    12.07
   Shell N            22.18    25.91    48.09
   Seed N            240.97     0.00   240.97
   Root N              6.06     7.01    13.07
   Nodule N            2.67     3.76     6.43
   Total N           281.04    65.27   346.31
   N leakage                            17.64
   TOTAL N                                      363.95


   N INPUTS TO SYSTEM                kg[N]/ha
   ------------------                --------
   Seed N At Planting                    0.68
   N2 Fixed                            199.93
   N Uptake from Soil                  163.36
   TOTAL N                                      363.96

   * Lost due to senescence, freeze, pest or disease damage.

*******************************************************************************

*DSSAT Cropping System Model Ver. 4.6.1.000 -release      NOV 01, 2016; 12:10:37
                                                                                
*RUN  13        : UYSB                      CRGRO046 UYSB1026    1              
 MODEL          : CRGRO046 - Soybean                                            
 EXPERIMENT     : UYSB1026 SN late to create DSS                                
 DATA PATH      :                                                               
 TREATMENT  1   : UYSB                      CRGRO046                            
                                                                                
                                                                                
 CROP           : Soybean          CULTIVAR : GM 4 URUGUAY     ECOTYPE :INDETE  
 STARTING DATE  : OCT 30 2002                                                   
 PLANTING DATE  : NOV  2 2002        PLANTS/m2 :  7.0     ROW SPACING :  15.cm  
 WEATHER        : UYTA0201                                                      
 SOIL           : UYSS0N2002     TEXTURE : -99   -  N20-02    SNIA CLAY RISS    
 SOIL INITIAL C : DEPTH:125cm EXTR. H2O:154.7mm  NO3: 28.7kg/ha  NH4: 24.1kg/ha 
 WATER BALANCE  : AUTOMATIC IRRIGATION - REFILL PROFILE                         
 IRRIGATION     : AUTOMATIC - PLANTING -> MATURITY [ SOIL DEPTH: 0.30m 50.%]    
 NITROGEN BAL.  : SOIL-N, N-UPTAKE & DYNAMIC N-FIXATION SIMULATION              
 N-FERTILIZER   : NO N-FERTILIZER APPLIED                                       
 RESIDUE/MANURE : INITIAL :     0 kg/ha ;       0 kg/ha IN     0 APPLICATIONS   
 ENVIRONM. OPT. : DAYL=    0.00  SRAD=    0.00  TMAX=    0.00  TMIN=    0.00    
                  RAIN=    0.00  CO2 =    0.00  DEW =    0.00  WIND=    0.00    
 SIMULATION OPT : WATER   :Y  NITROGEN:Y  N-FIX:Y  PHOSPH :N  PESTS  :N         
                  PHOTO   :C  ET      :R  INFIL:S  HYDROL :R  SOM    :G         
                  CO2 374ppm  NSWIT   :1  EVAP :S  SOIL   :2  STEMP  :D         
 MANAGEMENT OPT : PLANTING:R  IRRIG   :A  FERT :N  RESIDUE:N  HARVEST:M         
                  WEATHER :M  TILLAGE :N                                        
                                                                                
*SUMMARY OF SOIL AND GENETIC INPUT PARAMETERS                                   
                                                                                
   SOIL LOWER UPPER   SAT  EXTR  INIT   ROOT   BULK     pH    NO3    NH4    ORG 
  DEPTH LIMIT LIMIT    SW    SW    SW   DIST   DENS                          C  
   cm   cm3/cm3    cm3/cm3    cm3/cm3         g/cm3         ugN/g  ugN/g     %  
------------------------------------------------------------------------------- 
  0-  5 0.215 0.440 0.484 0.225 0.282   1.00   1.05   0.40   5.00   1.50   4.64 
  5- 15 0.215 0.440 0.484 0.225 0.282   1.00   1.05   0.40   5.00   1.50   4.64 
 15- 30 0.215 0.440 0.484 0.225 0.282   1.00   1.05   0.40   5.00   1.50   4.64 
 30- 41 0.219 0.365 0.457 0.146 0.262   0.40   1.22   6.80   4.60   1.50   2.74 
 41- 53 0.219 0.365 0.457 0.146 0.262   0.40   1.22   6.80   4.60   1.50   2.74 
 53- 63 0.215 0.287 0.429 0.072 0.287   0.10   1.38   7.30   0.00   1.50   1.07 
 63- 74 0.215 0.287 0.429 0.072 0.287   0.10   1.38   7.30   0.00   1.50   1.07 
 74- 84 0.215 0.287 0.429 0.072 0.287   0.10   1.38   7.30   0.00   1.50   1.07 
 84-110 0.214 0.275 0.424 0.061 0.275   0.10   1.41   7.80   0.00   1.50   0.71 
110-125 0.209 0.312 0.438 0.103 0.312   0.00   1.44   8.00   0.00   1.50   0.35 
                                                                                
TOT-125  26.9  42.3  55.9  15.5  35.2  <--cm   -  kg/ha-->   28.7   24.1 302408 
SOIL ALBEDO    : 0.12      EVAPORATION LIMIT :10.00         MIN. FACTOR  : 1.00 
RUNOFF CURVE # : 0.75      DRAINAGE RATE     : 0.25         FERT. FACTOR : 1.00 
                                                                                
 Soybean    CULTIVAR :UY0141-GM 4 URUGUAY       ECOTYPE :INDETE                 
 CSDVAR :13.39  PPSEN  : 0.29  EMG-FLW:20.80  FLW-FSD:18.00  FSD-PHM : 36.00    
 WTPSD  :0.200  SDPDVR : 1.70  SDFDUR :26.00  PODDUR :10.00  XFRUIT  :  1.00    
 THRESH : 77.0  SDPRO  :0.405  SDLIP   : 0.205                                  


   PLANT COMPONENT  HARVEST     LOST*   TOTAL  BALANCE
   ---------------  -------- kg[N]/ha -------  -------
   Leaf N              1.02    19.47    20.49
   Stem N              6.49     3.33     9.82
   Shell N            19.78    21.98    41.76
   Seed N            201.13     0.00   201.13
   Root N              4.06     6.73    10.79
   Nodule N            1.99     4.13     6.12
   Total N           234.47    55.64   290.11
   N leakage                            17.52
   TOTAL N                                      307.63


   N INPUTS TO SYSTEM                kg[N]/ha
   ------------------                --------
   Seed N At Planting                    0.68
   N2 Fixed                            148.65
   N Uptake from Soil                  158.32
   TOTAL N                                      307.65

   * Lost due to senescence, freeze, pest or disease damage.

*******************************************************************************

*DSSAT Cropping System Model Ver. 4.6.1.000 -release      NOV 01, 2016; 12:10:37
                                                                                
*RUN  14        : UYSB                      CRGRO046 UYSB1026    1              
 MODEL          : CRGRO046 - Soybean                                            
 EXPERIMENT     : UYSB1026 SN late to create DSS                                
 DATA PATH      :                                                               
 TREATMENT  1   : UYSB                      CRGRO046                            
                                                                                
                                                                                
 CROP           : Soybean          CULTIVAR : GM 4 URUGUAY     ECOTYPE :INDETE  
 STARTING DATE  : OCT 30 2003                                                   
 PLANTING DATE  : NOV  2 2003        PLANTS/m2 :  7.0     ROW SPACING :  15.cm  
 WEATHER        : UYTA0301                                                      
 SOIL           : UYSS0N2002     TEXTURE : -99   -  N20-02    SNIA CLAY RISS    
 SOIL INITIAL C : DEPTH:125cm EXTR. H2O:154.7mm  NO3: 28.7kg/ha  NH4: 24.1kg/ha 
 WATER BALANCE  : AUTOMATIC IRRIGATION - REFILL PROFILE                         
 IRRIGATION     : AUTOMATIC - PLANTING -> MATURITY [ SOIL DEPTH: 0.30m 50.%]    
 NITROGEN BAL.  : SOIL-N, N-UPTAKE & DYNAMIC N-FIXATION SIMULATION              
 N-FERTILIZER   : NO N-FERTILIZER APPLIED                                       
 RESIDUE/MANURE : INITIAL :     0 kg/ha ;       0 kg/ha IN     0 APPLICATIONS   
 ENVIRONM. OPT. : DAYL=    0.00  SRAD=    0.00  TMAX=    0.00  TMIN=    0.00    
                  RAIN=    0.00  CO2 =    0.00  DEW =    0.00  WIND=    0.00    
 SIMULATION OPT : WATER   :Y  NITROGEN:Y  N-FIX:Y  PHOSPH :N  PESTS  :N         
                  PHOTO   :C  ET      :R  INFIL:S  HYDROL :R  SOM    :G         
                  CO2 376ppm  NSWIT   :1  EVAP :S  SOIL   :2  STEMP  :D         
 MANAGEMENT OPT : PLANTING:R  IRRIG   :A  FERT :N  RESIDUE:N  HARVEST:M         
                  WEATHER :M  TILLAGE :N                                        
                                                                                
*SUMMARY OF SOIL AND GENETIC INPUT PARAMETERS                                   
                                                                                
   SOIL LOWER UPPER   SAT  EXTR  INIT   ROOT   BULK     pH    NO3    NH4    ORG 
  DEPTH LIMIT LIMIT    SW    SW    SW   DIST   DENS                          C  
   cm   cm3/cm3    cm3/cm3    cm3/cm3         g/cm3         ugN/g  ugN/g     %  
------------------------------------------------------------------------------- 
  0-  5 0.215 0.440 0.484 0.225 0.282   1.00   1.05   0.40   5.00   1.50   4.64 
  5- 15 0.215 0.440 0.484 0.225 0.282   1.00   1.05   0.40   5.00   1.50   4.64 
 15- 30 0.215 0.440 0.484 0.225 0.282   1.00   1.05   0.40   5.00   1.50   4.64 
 30- 41 0.219 0.365 0.457 0.146 0.262   0.40   1.22   6.80   4.60   1.50   2.74 
 41- 53 0.219 0.365 0.457 0.146 0.262   0.40   1.22   6.80   4.60   1.50   2.74 
 53- 63 0.215 0.287 0.429 0.072 0.287   0.10   1.38   7.30   0.00   1.50   1.07 
 63- 74 0.215 0.287 0.429 0.072 0.287   0.10   1.38   7.30   0.00   1.50   1.07 
 74- 84 0.215 0.287 0.429 0.072 0.287   0.10   1.38   7.30   0.00   1.50   1.07 
 84-110 0.214 0.275 0.424 0.061 0.275   0.10   1.41   7.80   0.00   1.50   0.71 
110-125 0.209 0.312 0.438 0.103 0.312   0.00   1.44   8.00   0.00   1.50   0.35 
                                                                                
TOT-125  26.9  42.3  55.9  15.5  35.2  <--cm   -  kg/ha-->   28.7   24.1 302408 
SOIL ALBEDO    : 0.12      EVAPORATION LIMIT :10.00         MIN. FACTOR  : 1.00 
RUNOFF CURVE # : 0.75      DRAINAGE RATE     : 0.25         FERT. FACTOR : 1.00 
                                                                                
 Soybean    CULTIVAR :UY0141-GM 4 URUGUAY       ECOTYPE :INDETE                 
 CSDVAR :13.39  PPSEN  : 0.29  EMG-FLW:20.80  FLW-FSD:18.00  FSD-PHM : 36.00    
 WTPSD  :0.200  SDPDVR : 1.70  SDFDUR :26.00  PODDUR :10.00  XFRUIT  :  1.00    
 THRESH : 77.0  SDPRO  :0.405  SDLIP   : 0.205                                  


   PLANT COMPONENT  HARVEST     LOST*   TOTAL  BALANCE
   ---------------  -------- kg[N]/ha -------  -------
   Leaf N              1.20    23.59    24.79
   Stem N              7.42     4.04    11.46
   Shell N            21.83    19.66    41.48
   Seed N            257.91     0.00   257.91
   Root N              6.26     6.60    12.87
   Nodule N            2.79     3.01     5.80
   Total N           297.41    56.90   354.31
   N leakage                            20.44
   TOTAL N                                      374.75


   N INPUTS TO SYSTEM                kg[N]/ha
   ------------------                --------
   Seed N At Planting                    0.68
   N2 Fixed                            209.94
   N Uptake from Soil                  164.14
   TOTAL N                                      374.77

   * Lost due to senescence, freeze, pest or disease damage.

*******************************************************************************

*DSSAT Cropping System Model Ver. 4.6.1.000 -release      NOV 01, 2016; 12:10:37
                                                                                
*RUN  15        : UYSB                      CRGRO046 UYSB1026    1              
 MODEL          : CRGRO046 - Soybean                                            
 EXPERIMENT     : UYSB1026 SN late to create DSS                                
 DATA PATH      :                                                               
 TREATMENT  1   : UYSB                      CRGRO046                            
                                                                                
                                                                                
 CROP           : Soybean          CULTIVAR : GM 4 URUGUAY     ECOTYPE :INDETE  
 STARTING DATE  : OCT 29 2004                                                   
 PLANTING DATE  : NOV  1 2004        PLANTS/m2 :  7.0     ROW SPACING :  15.cm  
 WEATHER        : UYTA0401                                                      
 SOIL           : UYSS0N2002     TEXTURE : -99   -  N20-02    SNIA CLAY RISS    
 SOIL INITIAL C : DEPTH:125cm EXTR. H2O:154.7mm  NO3: 28.7kg/ha  NH4: 24.1kg/ha 
 WATER BALANCE  : AUTOMATIC IRRIGATION - REFILL PROFILE                         
 IRRIGATION     : AUTOMATIC - PLANTING -> MATURITY [ SOIL DEPTH: 0.30m 50.%]    
 NITROGEN BAL.  : SOIL-N, N-UPTAKE & DYNAMIC N-FIXATION SIMULATION              
 N-FERTILIZER   : NO N-FERTILIZER APPLIED                                       
 RESIDUE/MANURE : INITIAL :     0 kg/ha ;       0 kg/ha IN     0 APPLICATIONS   
 ENVIRONM. OPT. : DAYL=    0.00  SRAD=    0.00  TMAX=    0.00  TMIN=    0.00    
                  RAIN=    0.00  CO2 =    0.00  DEW =    0.00  WIND=    0.00    
 SIMULATION OPT : WATER   :Y  NITROGEN:Y  N-FIX:Y  PHOSPH :N  PESTS  :N         
                  PHOTO   :C  ET      :R  INFIL:S  HYDROL :R  SOM    :G         
                  CO2 378ppm  NSWIT   :1  EVAP :S  SOIL   :2  STEMP  :D         
 MANAGEMENT OPT : PLANTING:R  IRRIG   :A  FERT :N  RESIDUE:N  HARVEST:M         
                  WEATHER :M  TILLAGE :N                                        
                                                                                
*SUMMARY OF SOIL AND GENETIC INPUT PARAMETERS                                   
                                                                                
   SOIL LOWER UPPER   SAT  EXTR  INIT   ROOT   BULK     pH    NO3    NH4    ORG 
  DEPTH LIMIT LIMIT    SW    SW    SW   DIST   DENS                          C  
   cm   cm3/cm3    cm3/cm3    cm3/cm3         g/cm3         ugN/g  ugN/g     %  
------------------------------------------------------------------------------- 
  0-  5 0.215 0.440 0.484 0.225 0.282   1.00   1.05   0.40   5.00   1.50   4.64 
  5- 15 0.215 0.440 0.484 0.225 0.282   1.00   1.05   0.40   5.00   1.50   4.64 
 15- 30 0.215 0.440 0.484 0.225 0.282   1.00   1.05   0.40   5.00   1.50   4.64 
 30- 41 0.219 0.365 0.457 0.146 0.262   0.40   1.22   6.80   4.60   1.50   2.74 
 41- 53 0.219 0.365 0.457 0.146 0.262   0.40   1.22   6.80   4.60   1.50   2.74 
 53- 63 0.215 0.287 0.429 0.072 0.287   0.10   1.38   7.30   0.00   1.50   1.07 
 63- 74 0.215 0.287 0.429 0.072 0.287   0.10   1.38   7.30   0.00   1.50   1.07 
 74- 84 0.215 0.287 0.429 0.072 0.287   0.10   1.38   7.30   0.00   1.50   1.07 
 84-110 0.214 0.275 0.424 0.061 0.275   0.10   1.41   7.80   0.00   1.50   0.71 
110-125 0.209 0.312 0.438 0.103 0.312   0.00   1.44   8.00   0.00   1.50   0.35 
                                                                                
TOT-125  26.9  42.3  55.9  15.5  35.2  <--cm   -  kg/ha-->   28.7   24.1 302408 
SOIL ALBEDO    : 0.12      EVAPORATION LIMIT :10.00         MIN. FACTOR  : 1.00 
RUNOFF CURVE # : 0.75      DRAINAGE RATE     : 0.25         FERT. FACTOR : 1.00 
                                                                                
 Soybean    CULTIVAR :UY0141-GM 4 URUGUAY       ECOTYPE :INDETE                 
 CSDVAR :13.39  PPSEN  : 0.29  EMG-FLW:20.80  FLW-FSD:18.00  FSD-PHM : 36.00    
 WTPSD  :0.200  SDPDVR : 1.70  SDFDUR :26.00  PODDUR :10.00  XFRUIT  :  1.00    
 THRESH : 77.0  SDPRO  :0.405  SDLIP   : 0.205                                  


   PLANT COMPONENT  HARVEST     LOST*   TOTAL  BALANCE
   ---------------  -------- kg[N]/ha -------  -------
   Leaf N              1.37    26.56    27.93
   Stem N              8.70     4.59    13.28
   Shell N            20.61    35.14    55.75
   Seed N            239.95     0.00   239.95
   Root N              6.86     7.43    14.29
   Nodule N            2.79     3.56     6.35
   Total N           280.27    77.27   357.54
   N leakage                            15.98
   TOTAL N                                      373.53


   N INPUTS TO SYSTEM                kg[N]/ha
   ------------------                --------
   Seed N At Planting                    0.68
   N2 Fixed                            204.61
   N Uptake from Soil                  168.26
   TOTAL N                                      373.54

   * Lost due to senescence, freeze, pest or disease damage.

*******************************************************************************

*DSSAT Cropping System Model Ver. 4.6.1.000 -release      NOV 01, 2016; 12:10:37
                                                                                
*RUN  16        : UYSB                      CRGRO046 UYSB1026    1              
 MODEL          : CRGRO046 - Soybean                                            
 EXPERIMENT     : UYSB1026 SN late to create DSS                                
 DATA PATH      :                                                               
 TREATMENT  1   : UYSB                      CRGRO046                            
                                                                                
                                                                                
 CROP           : Soybean          CULTIVAR : GM 4 URUGUAY     ECOTYPE :INDETE  
 STARTING DATE  : OCT 30 2005                                                   
 PLANTING DATE  : NOV  2 2005        PLANTS/m2 :  7.0     ROW SPACING :  15.cm  
 WEATHER        : UYTA0501                                                      
[...]
 SOIL           : UYSS0N2002     TEXTURE : -99   -  N20-02    SNIA CLAY RISS    
 SOIL INITIAL C : DEPTH:125cm EXTR. H2O:154.7mm  NO3: 28.7kg/ha  NH4: 24.1kg/ha 
 WATER BALANCE  : AUTOMATIC IRRIGATION - REFILL PROFILE                         
 IRRIGATION     : AUTOMATIC - PLANTING -> MATURITY [ SOIL DEPTH: 0.30m 50.%]    
 NITROGEN BAL.  : SOIL-N, N-UPTAKE & DYNAMIC N-FIXATION SIMULATION              
 N-FERTILIZER   : NO N-FERTILIZER APPLIED                                       
 RESIDUE/MANURE : INITIAL :     0 kg/ha ;       0 kg/ha IN     0 APPLICATIONS   
 ENVIRONM. OPT. : DAYL=    0.00  SRAD=    0.00  TMAX=    0.00  TMIN=    0.00    
                  RAIN=    0.00  CO2 =    0.00  DEW =    0.00  WIND=    0.00    
 SIMULATION OPT : WATER   :Y  NITROGEN:Y  N-FIX:Y  PHOSPH :N  PESTS  :N         
                  PHOTO   :C  ET      :R  INFIL:S  HYDROL :R  SOM    :G         
                  CO2 384ppm  NSWIT   :1  EVAP :S  SOIL   :2  STEMP  :D         
 MANAGEMENT OPT : PLANTING:R  IRRIG   :A  FERT :N  RESIDUE:N  HARVEST:M         
                  WEATHER :M  TILLAGE :N                                        
                                                                                
*SUMMARY OF SOIL AND GENETIC INPUT PARAMETERS                                   
                                                                                
   SOIL LOWER UPPER   SAT  EXTR  INIT   ROOT   BULK     pH    NO3    NH4    ORG 
  DEPTH LIMIT LIMIT    SW    SW    SW   DIST   DENS                          C  
   cm   cm3/cm3    cm3/cm3    cm3/cm3         g/cm3         ugN/g  ugN/g     %  
------------------------------------------------------------------------------- 
  0-  5 0.215 0.440 0.484 0.225 0.282   1.00   1.05   0.40   5.00   1.50   4.64 
  5- 15 0.215 0.440 0.484 0.225 0.282   1.00   1.05   0.40   5.00   1.50   4.64 
 15- 30 0.215 0.440 0.484 0.225 0.282   1.00   1.05   0.40   5.00   1.50   4.64 
 30- 41 0.219 0.365 0.457 0.146 0.262   0.40   1.22   6.80   4.60   1.50   2.74 
 41- 53 0.219 0.365 0.457 0.146 0.262   0.40   1.22   6.80   4.60   1.50   2.74 
 53- 63 0.215 0.287 0.429 0.072 0.287   0.10   1.38   7.30   0.00   1.50   1.07 
 63- 74 0.215 0.287 0.429 0.072 0.287   0.10   1.38   7.30   0.00   1.50   1.07 
 74- 84 0.215 0.287 0.429 0.072 0.287   0.10   1.38   7.30   0.00   1.50   1.07 
 84-110 0.214 0.275 0.424 0.061 0.275   0.10   1.41   7.80   0.00   1.50   0.71 
110-125 0.209 0.312 0.438 0.103 0.312   0.00   1.44   8.00   0.00   1.50   0.35 
                                                                                
TOT-125  26.9  42.3  55.9  15.5  35.2  <--cm   -  kg/ha-->   28.7   24.1 302408 
SOIL ALBEDO    : 0.12      EVAPORATION LIMIT :10.00         MIN. FACTOR  : 1.00 
RUNOFF CURVE # : 0.75      DRAINAGE RATE     : 0.25         FERT. FACTOR : 1.00 
                                                                                
 Soybean    CULTIVAR :UY0141-GM 4 URUGUAY       ECOTYPE :INDETE                 
 CSDVAR :13.39  PPSEN  : 0.29  EMG-FLW:20.80  FLW-FSD:18.00  FSD-PHM : 36.00    
 WTPSD  :0.200  SDPDVR : 1.70  SDFDUR :26.00  PODDUR :10.00  XFRUIT  :  1.00    
 THRESH : 77.0  SDPRO  :0.405  SDLIP   : 0.205                                  


   PLANT COMPONENT  HARVEST     LOST*   TOTAL  BALANCE
   ---------------  -------- kg[N]/ha -------  -------
   Leaf N              1.29    24.51    25.80
   Stem N              7.87     4.24    12.11
   Shell N            20.30    26.65    46.95
   Seed N            248.66     0.00   248.66
   Root N              6.31     7.57    13.88
   Nodule N            3.33     3.51     6.85
   Total N           287.77    66.47   354.24
   N leakage                            15.90
   TOTAL N                                      370.14


   N INPUTS TO SYSTEM                kg[N]/ha
   ------------------                --------
   Seed N At Planting                    0.68
   N2 Fixed                            241.73
   N Uptake from Soil                  127.74
   TOTAL N                                      370.15

   * Lost due to senescence, freeze, pest or disease damage.

*******************************************************************************

*DSSAT Cropping System Model Ver. 4.6.1.000 -release      NOV 01, 2016; 12:10:37
                                                                                
*RUN  19        : UYSB                      CRGRO046 UYSB1026    1              
 MODEL          : CRGRO046 - Soybean                                            
 EXPERIMENT     : UYSB1026 SN late to create DSS                                
 DATA PATH      :                                                               
 TREATMENT  1   : UYSB                      CRGRO046                            
                                                                                
                                                                                
 CROP           : Soybean          CULTIVAR : GM 4 URUGUAY     ECOTYPE :INDETE  
 STARTING DATE  : OCT 29 2008                                                   
 PLANTING DATE  : NOV  1 2008        PLANTS/m2 :  7.0     ROW SPACING :  15.cm  
 WEATHER        : UYTA0801                                                      
 SOIL           : UYSS0N2002     TEXTURE : -99   -  N20-02    SNIA CLAY RISS    
 SOIL INITIAL C : DEPTH:125cm EXTR. H2O:154.7mm  NO3: 28.7kg/ha  NH4: 24.1kg/ha 
 WATER BALANCE  : AUTOMATIC IRRIGATION - REFILL PROFILE                         
 IRRIGATION     : AUTOMATIC - PLANTING -> MATURITY [ SOIL DEPTH: 0.30m 50.%]    
 NITROGEN BAL.  : SOIL-N, N-UPTAKE & DYNAMIC N-FIXATION SIMULATION              
 N-FERTILIZER   : NO N-FERTILIZER APPLIED                                       
 RESIDUE/MANURE : INITIAL :     0 kg/ha ;       0 kg/ha IN     0 APPLICATIONS   
 ENVIRONM. OPT. : DAYL=    0.00  SRAD=    0.00  TMAX=    0.00  TMIN=    0.00    
                  RAIN=    0.00  CO2 =    0.00  DEW =    0.00  WIND=    0.00    
 SIMULATION OPT : WATER   :Y  NITROGEN:Y  N-FIX:Y  PHOSPH :N  PESTS  :N         
                  PHOTO   :C  ET      :R  INFIL:S  HYDROL :R  SOM    :G         
                  CO2 386ppm  NSWIT   :1  EVAP :S  SOIL   :2  STEMP  :D         
 MANAGEMENT OPT : PLANTING:R  IRRIG   :A  FERT :N  RESIDUE:N  HARVEST:M         
                  WEATHER :M  TILLAGE :N                                        
                                                                                
*SUMMARY OF SOIL AND GENETIC INPUT PARAMETERS                                   
                                                                                
   SOIL LOWER UPPER   SAT  EXTR  INIT   ROOT   BULK     pH    NO3    NH4    ORG 
  DEPTH LIMIT LIMIT    SW    SW    SW   DIST   DENS                          C  
   cm   cm3/cm3    cm3/cm3    cm3/cm3         g/cm3         ugN/g  ugN/g     %  
------------------------------------------------------------------------------- 
  0-  5 0.215 0.440 0.484 0.225 0.282   1.00   1.05   0.40   5.00   1.50   4.64 
  5- 15 0.215 0.440 0.484 0.225 0.282   1.00   1.05   0.40   5.00   1.50   4.64 
 15- 30 0.215 0.440 0.484 0.225 0.282   1.00   1.05   0.40   5.00   1.50   4.64 
 30- 41 0.219 0.365 0.457 0.146 0.262   0.40   1.22   6.80   4.60   1.50   2.74 
 41- 53 0.219 0.365 0.457 0.146 0.262   0.40   1.22   6.80   4.60   1.50   2.74 
 53- 63 0.215 0.287 0.429 0.072 0.287   0.10   1.38   7.30   0.00   1.50   1.07 
 63- 74 0.215 0.287 0.429 0.072 0.287   0.10   1.38   7.30   0.00   1.50   1.07 
 74- 84 0.215 0.287 0.429 0.072 0.287   0.10   1.38   7.30   0.00   1.50   1.07 
 84-110 0.214 0.275 0.424 0.061 0.275   0.10   1.41   7.80   0.00   1.50   0.71 
110-125 0.209 0.312 0.438 0.103 0.312   0.00   1.44   8.00   0.00   1.50   0.35 
                                                                                
TOT-125  26.9  42.3  55.9  15.5  35.2  <--cm   -  kg/ha-->   28.7   24.1 302408 
SOIL ALBEDO    : 0.12      EVAPORATION LIMIT :10.00         MIN. FACTOR  : 1.00 
RUNOFF CURVE # : 0.75      DRAINAGE RATE     : 0.25         FERT. FACTOR : 1.00 
                                                                                
 Soybean    CULTIVAR :UY0141-GM 4 URUGUAY       ECOTYPE :INDETE                 
 CSDVAR :13.39  PPSEN  : 0.29  EMG-FLW:20.80  FLW-FSD:18.00  FSD-PHM : 36.00    
 WTPSD  :0.200  SDPDVR : 1.70  SDFDUR :26.00  PODDUR :10.00  XFRUIT  :  1.00    
 THRESH : 77.0  SDPRO  :0.405  SDLIP   : 0.205                                  


   PLANT COMPONENT  HARVEST     LOST*   TOTAL  BALANCE
   ---------------  -------- kg[N]/ha -------  -------
   Leaf N              1.31    25.67    26.98
   Stem N              8.30     4.40    12.70
   Shell N            21.10    28.60    49.70
   Seed N            272.02     0.00   272.02
   Root N              6.72     7.22    13.94
   Nodule N            3.42     3.31     6.73
   Total N           312.87    69.20   382.06
   N leakage                            19.83
   TOTAL N                                      401.89


   N INPUTS TO SYSTEM                kg[N]/ha
   ------------------                --------
   Seed N At Planting                    0.68
   N2 Fixed                            253.12
   N Uptake from Soil                  148.13
   TOTAL N                                      401.93

   * Lost due to senescence, freeze, pest or disease damage.

*******************************************************************************

*DSSAT Cropping System Model Ver. 4.6.1.000 -release      NOV 01, 2016; 12:10:37
                                                                                
*RUN  20        : UYSB                      CRGRO046 UYSB1026    1              
 MODEL          : CRGRO046 - Soybean                                            
 EXPERIMENT     : UYSB1026 SN late to create DSS                                
 DATA PATH      :                                                               
 TREATMENT  1   : UYSB                      CRGRO046                            
                                                                                
                                                                                
 CROP           : Soybean          CULTIVAR : GM 4 URUGUAY     ECOTYPE :INDETE  
 STARTING DATE  : OCT 30 2009                                                   
 PLANTING DATE  : NOV  2 2009        PLANTS/m2 :  7.0     ROW SPACING :  15.cm  
 WEATHER        : UYTA0901                                                      
 SOIL           : UYSS0N2002     TEXTURE : -99   -  N20-02    SNIA CLAY RISS    
 SOIL INITIAL C : DEPTH:125cm EXTR. H2O:154.7mm  NO3: 28.7kg/ha  NH4: 24.1kg/ha 
 WATER BALANCE  : AUTOMATIC IRRIGATION - REFILL PROFILE                         
 IRRIGATION     : AUTOMATIC - PLANTING -> MATURITY [ SOIL DEPTH: 0.30m 50.%]    
 NITROGEN BAL.  : SOIL-N, N-UPTAKE & DYNAMIC N-FIXATION SIMULATION              
 N-FERTILIZER   : NO N-FERTILIZER APPLIED                                       
 RESIDUE/MANURE : INITIAL :     0 kg/ha ;       0 kg/ha IN     0 APPLICATIONS   
 ENVIRONM. OPT. : DAYL=    0.00  SRAD=    0.00  TMAX=    0.00  TMIN=    0.00    
                  RAIN=    0.00  CO2 =    0.00  DEW =    0.00  WIND=    0.00    
 SIMULATION OPT : WATER   :Y  NITROGEN:Y  N-FIX:Y  PHOSPH :N  PESTS  :N         
                  PHOTO   :C  ET      :R  INFIL:S  HYDROL :R  SOM    :G         
                  CO2 388ppm  NSWIT   :1  EVAP :S  SOIL   :2  STEMP  :D         
 MANAGEMENT OPT : PLANTING:R  IRRIG   :A  FERT :N  RESIDUE:N  HARVEST:M         
                  WEATHER :M  TILLAGE :N                                        
                                                                                
*SUMMARY OF SOIL AND GENETIC INPUT PARAMETERS                                   
                                                                                
   SOIL LOWER UPPER   SAT  EXTR  INIT   ROOT   BULK     pH    NO3    NH4    ORG 
  DEPTH LIMIT LIMIT    SW    SW    SW   DIST   DENS                          C  
   cm   cm3/cm3    cm3/cm3    cm3/cm3         g/cm3         ugN/g  ugN/g     %  
------------------------------------------------------------------------------- 
  0-  5 0.215 0.440 0.484 0.225 0.282   1.00   1.05   0.40   5.00   1.50   4.64 
  5- 15 0.215 0.440 0.484 0.225 0.282   1.00   1.05   0.40   5.00   1.50   4.64 
 15- 30 0.215 0.440 0.484 0.225 0.282   1.00   1.05   0.40   5.00   1.50   4.64 
 30- 41 0.219 0.365 0.457 0.146 0.262   0.40   1.22   6.80   4.60   1.50   2.74 
 41- 53 0.219 0.365 0.457 0.146 0.262   0.40   1.22   6.80   4.60   1.50   2.74 
 53- 63 0.215 0.287 0.429 0.072 0.287   0.10   1.38   7.30   0.00   1.50   1.07 
 63- 74 0.215 0.287 0.429 0.072 0.287   0.10   1.38   7.30   0.00   1.50   1.07 
 74- 84 0.215 0.287 0.429 0.072 0.287   0.10   1.38   7.30   0.00   1.50   1.07 
 84-110 0.214 0.275 0.424 0.061 0.275   0.10   1.41   7.80   0.00   1.50   0.71 
110-125 0.209 0.312 0.438 0.103 0.312   0.00   1.44   8.00   0.00   1.50   0.35 
                                                                                
TOT-125  26.9  42.3  55.9  15.5  35.2  <--cm   -  kg/ha-->   28.7   24.1 302408 
SOIL ALBEDO    : 0.12      EVAPORATION LIMIT :10.00         MIN. FACTOR  : 1.00 
RUNOFF CURVE # : 0.75      DRAINAGE RATE     : 0.25         FERT. FACTOR : 1.00 
                                                                                
 Soybean    CULTIVAR :UY0141-GM 4 URUGUAY       ECOTYPE :INDETE                 
 CSDVAR :13.39  PPSEN  : 0.29  EMG-FLW:20.80  FLW-FSD:18.00  FSD-PHM : 36.00    
 WTPSD  :0.200  SDPDVR : 1.70  SDFDUR :26.00  PODDUR :10.00  XFRUIT  :  1.00    
 THRESH : 77.0  SDPRO  :0.405  SDLIP   : 0.205                                  


   PLANT COMPONENT  HARVEST     LOST*   TOTAL  BALANCE
   ---------------  -------- kg[N]/ha -------  -------
   Leaf N              1.14    21.84    22.98
   Stem N              7.37     3.78    11.15
   Shell N            19.64    20.87    40.51
   Seed N            217.16     0.00   217.16
   Root N              3.89     8.35    12.24
   Nodule N            2.55     3.41     5.96
   Total N           251.75    58.26   310.01
   N leakage                            15.79
   TOTAL N                                      325.79


   N INPUTS TO SYSTEM                kg[N]/ha
   ------------------                --------
   Seed N At Planting                    0.68
   N2 Fixed                            173.82
   N Uptake from Soil                  151.31
   TOTAL N                                      325.80

   * Lost due to senescence, freeze, pest or disease damage.

*******************************************************************************

*DSSAT Cropping System Model Ver. 4.6.1.000 -release      NOV 01, 2016; 12:10:37
                                                                                
*RUN  21        : UYSB                      CRGRO046 UYSB1026    1              
 MODEL          : CRGRO046 - Soybean                                            
 EXPERIMENT     : UYSB1026 SN late to create DSS                                
 DATA PATH      :                                                               
 TREATMENT  1   : UYSB                      CRGRO046                            
                                                                                
                                                                                
 CROP           : Soybean          CULTIVAR : GM 4 URUGUAY     ECOTYPE :INDETE  
 STARTING DATE  : OCT 30 2010                                                   
 PLANTING DATE  : NOV  2 2010        PLANTS/m2 :  7.0     ROW SPACING :  15.cm  
 WEATHER        : UYTA1001                                                      
 SOIL           : UYSS0N2002     TEXTURE : -99   -  N20-02    SNIA CLAY RISS    
 SOIL INITIAL C : DEPTH:125cm EXTR. H2O:154.7mm  NO3: 28.7kg/ha  NH4: 24.1kg/ha 
 WATER BALANCE  : AUTOMATIC IRRIGATION - REFILL PROFILE                         
 IRRIGATION     : AUTOMATIC - PLANTING -> MATURITY [ SOIL DEPTH: 0.30m 50.%]    
 NITROGEN BAL.  : SOIL-N, N-UPTAKE & DYNAMIC N-FIXATION SIMULATION              
 N-FERTILIZER   : NO N-FERTILIZER APPLIED                                       
 RESIDUE/MANURE : INITIAL :     0 kg/ha ;       0 kg/ha IN     0 APPLICATIONS   
 ENVIRONM. OPT. : DAYL=    0.00  SRAD=    0.00  TMAX=    0.00  TMIN=    0.00    
                  RAIN=    0.00  CO2 =    0.00  DEW =    0.00  WIND=    0.00    
 SIMULATION OPT : WATER   :Y  NITROGEN:Y  N-FIX:Y  PHOSPH :N  PESTS  :N         
                  PHOTO   :C  ET      :R  INFIL:S  HYDROL :R  SOM    :G         
                  CO2 390ppm  NSWIT   :1  EVAP :S  SOIL   :2  STEMP  :D         
 MANAGEMENT OPT : PLANTING:R  IRRIG   :A  FERT :N  RESIDUE:N  HARVEST:M         
                  WEATHER :M  TILLAGE :N                                        
                                                                                
*SUMMARY OF SOIL AND GENETIC INPUT PARAMETERS                                   
                                                                                
   SOIL LOWER UPPER   SAT  EXTR  INIT   ROOT   BULK     pH    NO3    NH4    ORG 
  DEPTH LIMIT LIMIT    SW    SW    SW   DIST   DENS                          C  
   cm   cm3/cm3    cm3/cm3    cm3/cm3         g/cm3         ugN/g  ugN/g     %  
------------------------------------------------------------------------------- 
  0-  5 0.215 0.440 0.484 0.225 0.282   1.00   1.05   0.40   5.00   1.50   4.64 
  5- 15 0.215 0.440 0.484 0.225 0.282   1.00   1.05   0.40   5.00   1.50   4.64 
 15- 30 0.215 0.440 0.484 0.225 0.282   1.00   1.05   0.40   5.00   1.50   4.64 
 30- 41 0.219 0.365 0.457 0.146 0.262   0.40   1.22   6.80   4.60   1.50   2.74 
 41- 53 0.219 0.365 0.457 0.146 0.262   0.40   1.22   6.80   4.60   1.50   2.74 
 53- 63 0.215 0.287 0.429 0.072 0.287   0.10   1.38   7.30   0.00   1.50   1.07 
 63- 74 0.215 0.287 0.429 0.072 0.287   0.10   1.38   7.30   0.00   1.50   1.07 
 74- 84 0.215 0.287 0.429 0.072 0.287   0.10   1.38   7.30   0.00   1.50   1.07 
 84-110 0.214 0.275 0.424 0.061 0.275   0.10   1.41   7.80   0.00   1.50   0.71 
110-125 0.209 0.312 0.438 0.103 0.312   0.00   1.44   8.00   0.00   1.50   0.35 
                                                                                
TOT-125  26.9  42.3  55.9  15.5  35.2  <--cm   -  kg/ha-->   28.7   24.1 302408 
SOIL ALBEDO    : 0.12      EVAPORATION LIMIT :10.00         MIN. FACTOR  : 1.00 
RUNOFF CURVE # : 0.75      DRAINAGE RATE     : 0.25         FERT. FACTOR : 1.00 
                                                                                
 Soybean    CULTIVAR :UY0141-GM 4 URUGUAY       ECOTYPE :INDETE                 
 CSDVAR :13.39  PPSEN  : 0.29  EMG-FLW:20.80  FLW-FSD:18.00  FSD-PHM : 36.00    
 WTPSD  :0.200  SDPDVR : 1.70  SDFDUR :26.00  PODDUR :10.00  XFRUIT  :  1.00    
 THRESH : 77.0  SDPRO  :0.405  SDLIP   : 0.205                                  


   PLANT COMPONENT  HARVEST     LOST*   TOTAL  BALANCE
   ---------------  -------- kg[N]/ha -------  -------
   Leaf N              1.27    23.73    25.00
   Stem N              7.70     4.09    11.79
   Shell N            19.08    21.72    40.80
   Seed N            254.31     0.00   254.31
   Root N              6.01     7.42    13.42
   Nodule N            3.13     3.32     6.46
   Total N           291.51    60.27   351.79
   N leakage                            14.48
   TOTAL N                                      366.26


   N INPUTS TO SYSTEM                kg[N]/ha
   ------------------                --------
   Seed N At Planting                    0.68
   N2 Fixed                            206.05
   N Uptake from Soil                  159.54
   TOTAL N                                      366.28

   * Lost due to senescence, freeze, pest or disease damage.

*******************************************************************************
