*PLANT N BALANCE

*DSSAT Cropping System Model Ver. 4.6.1.000 -release      OCT 27, 2016; 10:38:10
                                                                                
*RUN   1        : UYSB                      CRGRO046 UYSB1005    1              
 MODEL          : CRGRO046 - Soybean                                            
 EXPERIMENT     : UYSB1005 SN late to create DSS                                
 DATA PATH      :                                                               
 TREATMENT  1   : UYSB                      CRGRO046                            
                                                                                
                                                                                
 CROP           : Soybean          CULTIVAR : GM 4 URUGUAY     ECOTYPE :INDETE  
 STARTING DATE  : OCT 24 2000                                                   
 PLANTING DATE  : OCT 27 2000        PLANTS/m2 :  7.0     ROW SPACING :  15.cm  
 WEATHER        : UYTA   2000                                                   
 SOIL           : UYSS0N2002     TEXTURE : -99   -  N20-02    SNIA CLAY RISS    
 SOIL INITIAL C : DEPTH:125cm EXTR. H2O:154.7mm  NO3: 28.7kg/ha  NH4: 24.1kg/ha 
 WATER BALANCE  : AUTOMATIC IRRIGATION - REFILL PROFILE                         
 IRRIGATION     : AUTOMATIC - PLANTING -> MATURITY [ SOIL DEPTH: 0.30m 50.%]    
 NITROGEN BAL.  : SOIL-N, N-UPTAKE & DYNAMIC N-FIXATION SIMULATION              
 N-FERTILIZER   :      122 kg/ha IN     3 APPLICATIONS                          
 RESIDUE/MANURE : INITIAL :     0 kg/ha ;       0 kg/ha IN     0 APPLICATIONS   
 ENVIRONM. OPT. : DAYL=    0.00  SRAD=    0.00  TMAX=    0.00  TMIN=    0.00    
                  RAIN=    0.00  CO2 =    0.00  DEW =    0.00  WIND=    0.00    
 SIMULATION OPT : WATER   :Y  NITROGEN:Y  N-FIX:Y  PHOSPH :N  PESTS  :N         
                  PHOTO   :C  ET      :R  INFIL:S  HYDROL :R  SOM    :G         
                  CO2 370ppm  NSWIT   :1  EVAP :S  SOIL   :2  STEMP  :D         
 MANAGEMENT OPT : PLANTING:R  IRRIG   :A  FERT :D  RESIDUE:N  HARVEST:M         
                  WEATHER :M  TILLAGE :N                                        
                                                                                
*SUMMARY OF SOIL AND GENETIC INPUT PARAMETERS                                   
                                                                                
   SOIL LOWER UPPER   SAT  EXTR  INIT   ROOT   BULK     pH    NO3    NH4    ORG 
  DEPTH LIMIT LIMIT    SW    SW    SW   DIST   DENS                          C  
   cm   cm3/cm3    cm3/cm3    cm3/cm3         g/cm3         ugN/g  ugN/g     %  
------------------------------------------------------------------------------- 
  0-  5 0.215 0.440 0.484 0.225 0.282   1.00   1.05   0.40   5.00   1.50   4.64 
  5- 15 0.215 0.440 0.484 0.225 0.282   1.00   1.05   0.40   5.00   1.50   4.64 
 15- 30 0.215 0.440 0.484 0.225 0.282   1.00   1.05   0.40   5.00   1.50   4.64 
 30- 41 0.219 0.365 0.457 0.146 0.262   0.40   1.22   6.80   4.60   1.50   2.74 
 41- 53 0.219 0.365 0.457 0.146 0.262   0.40   1.22   6.80   4.60   1.50   2.74 
 53- 63 0.215 0.287 0.429 0.072 0.287   0.10   1.38   7.30   0.00   1.50   1.07 
 63- 74 0.215 0.287 0.429 0.072 0.287   0.10   1.38   7.30   0.00   1.50   1.07 
 74- 84 0.215 0.287 0.429 0.072 0.287   0.10   1.38   7.30   0.00   1.50   1.07 
 84-110 0.214 0.275 0.424 0.061 0.275   0.10   1.41   7.80   0.00   1.50   0.71 
110-125 0.209 0.312 0.438 0.103 0.312   0.00   1.44   8.00   0.00   1.50   0.35 
                                                                                
TOT-125  26.9  42.3  55.9  15.5  35.2  <--cm   -  kg/ha-->   28.7   24.1 302408 
SOIL ALBEDO    : 0.12      EVAPORATION LIMIT :10.00         MIN. FACTOR  : 1.00 
RUNOFF CURVE # : 0.75      DRAINAGE RATE     : 0.25         FERT. FACTOR : 1.00 
                                                                                
 Soybean    CULTIVAR :UY0141-GM 4 URUGUAY       ECOTYPE :INDETE                 
 CSDVAR :13.39  PPSEN  : 0.29  EMG-FLW:20.80  FLW-FSD:18.00  FSD-PHM : 36.00    
 WTPSD  :0.200  SDPDVR : 1.70  SDFDUR :26.00  PODDUR :10.00  XFRUIT  :  1.00    
 THRESH : 77.0  SDPRO  :0.405  SDLIP   : 0.205                                  


   PLANT COMPONENT  HARVEST     LOST*   TOTAL  BALANCE
   ---------------  -------- kg[N]/ha -------  -------
   Leaf N              1.00    21.95    22.95
   Stem N              6.77     3.58    10.35
   Shell N            19.31    24.11    43.42
   Seed N            229.67     0.00   229.67
   Root N              5.33     6.83    12.16
   Nodule N            1.97     2.91     4.88
   Total N           264.05    59.39   323.44
   N leakage                            18.76
   TOTAL N                                      342.19


   N INPUTS TO SYSTEM                kg[N]/ha
   ------------------                --------
   Seed N At Planting                    0.68
   N2 Fixed                             66.81
   N Uptake from Soil                  274.74
   TOTAL N                                      342.23

   * Lost due to senescence, freeze, pest or disease damage.

*******************************************************************************

*DSSAT Cropping System Model Ver. 4.6.1.000 -release      OCT 27, 2016; 10:38:10
                                                                                
*RUN   2        : UYSB                      CRGRO046 UYSB1005    1              
 MODEL          : CRGRO046 - Soybean                                            
 EXPERIMENT     : UYSB1005 SN late to create DSS                                
 DATA PATH      :                                                               
 TREATMENT  1   : UYSB                      CRGRO046                            
                                                                                
                                                                                
 CROP           : Soybean          CULTIVAR : GM 4 URUGUAY     ECOTYPE :INDETE  
 STARTING DATE  : OCT 25 2001                                                   
 PLANTING DATE  : OCT 28 2001        PLANTS/m2 :  7.0     ROW SPACING :  15.cm  
 WEATHER        : UYTA0101                                                      
 SOIL           : UYSS0N2002     TEXTURE : -99   -  N20-02    SNIA CLAY RISS    
 SOIL INITIAL C : DEPTH:125cm EXTR. H2O:154.7mm  NO3: 28.7kg/ha  NH4: 24.1kg/ha 
 WATER BALANCE  : AUTOMATIC IRRIGATION - REFILL PROFILE                         
 IRRIGATION     : AUTOMATIC - PLANTING -> MATURITY [ SOIL DEPTH: 0.30m 50.%]    
 NITROGEN BAL.  : SOIL-N, N-UPTAKE & DYNAMIC N-FIXATION SIMULATION              
 N-FERTILIZER   :      122 kg/ha IN     3 APPLICATIONS                          
 RESIDUE/MANURE : INITIAL :     0 kg/ha ;       0 kg/ha IN     0 APPLICATIONS   
 ENVIRONM. OPT. : DAYL=    0.00  SRAD=    0.00  TMAX=    0.00  TMIN=    0.00    
                  RAIN=    0.00  CO2 =    0.00  DEW =    0.00  WIND=    0.00    
 SIMULATION OPT : WATER   :Y  NITROGEN:Y  N-FIX:Y  PHOSPH :N  PESTS  :N         
                  PHOTO   :C  ET      :R  INFIL:S  HYDROL :R  SOM    :G         
                  CO2 372ppm  NSWIT   :1  EVAP :S  SOIL   :2  STEMP  :D         
 MANAGEMENT OPT : PLANTING:R  IRRIG   :A  FERT :D  RESIDUE:N  HARVEST:M         
                  WEATHER :M  TILLAGE :N                                        
                                                                                
*SUMMARY OF SOIL AND GENETIC INPUT PARAMETERS                                   
                                                                                
   SOIL LOWER UPPER   SAT  EXTR  INIT   ROOT   BULK     pH    NO3    NH4    ORG 
  DEPTH LIMIT LIMIT    SW    SW    SW   DIST   DENS                          C  
   cm   cm3/cm3    cm3/cm3    cm3/cm3         g/cm3         ugN/g  ugN/g     %  
------------------------------------------------------------------------------- 
  0-  5 0.215 0.440 0.484 0.225 0.282   1.00   1.05   0.40   5.00   1.50   4.64 
  5- 15 0.215 0.440 0.484 0.225 0.282   1.00   1.05   0.40   5.00   1.50   4.64 
 15- 30 0.215 0.440 0.484 0.225 0.282   1.00   1.05   0.40   5.00   1.50   4.64 
 30- 41 0.219 0.365 0.457 0.146 0.262   0.40   1.22   6.80   4.60   1.50   2.74 
 41- 53 0.219 0.365 0.457 0.146 0.262   0.40   1.22   6.80   4.60   1.50   2.74 
 53- 63 0.215 0.287 0.429 0.072 0.287   0.10   1.38   7.30   0.00   1.50   1.07 
 63- 74 0.215 0.287 0.429 0.072 0.287   0.10   1.38   7.30   0.00   1.50   1.07 
 74- 84 0.215 0.287 0.429 0.072 0.287   0.10   1.38   7.30   0.00   1.50   1.07 
 84-110 0.214 0.275 0.424 0.061 0.275   0.10   1.41   7.80   0.00   1.50   0.71 
110-125 0.209 0.312 0.438 0.103 0.312   0.00   1.44   8.00   0.00   1.50   0.35 
                                                                                
TOT-125  26.9  42.3  55.9  15.5  35.2  <--cm   -  kg/ha-->   28.7   24.1 302408 
SOIL ALBEDO    : 0.12      EVAPORATION LIMIT :10.00         MIN. FACTOR  : 1.00 
RUNOFF CURVE # : 0.75      DRAINAGE RATE     : 0.25         FERT. FACTOR : 1.00 
                                                                                
 Soybean    CULTIVAR :UY0141-GM 4 URUGUAY       ECOTYPE :INDETE                 
 CSDVAR :13.39  PPSEN  : 0.29  EMG-FLW:20.80  FLW-FSD:18.00  FSD-PHM : 36.00    
 WTPSD  :0.200  SDPDVR : 1.70  SDFDUR :26.00  PODDUR :10.00  XFRUIT  :  1.00    
 THRESH : 77.0  SDPRO  :0.405  SDLIP   : 0.205                                  


   PLANT COMPONENT  HARVEST     LOST*   TOTAL  BALANCE
   ---------------  -------- kg[N]/ha -------  -------
   Leaf N              1.29    25.14    26.43
   Stem N              8.17     4.21    12.39
   Shell N            22.03    30.68    52.71
   Seed N            251.95     0.00   251.95
   Root N              5.94     7.48    13.41
   Nodule N            2.10     4.61     6.72
   Total N           291.48    72.12   363.60
   N leakage                            14.91
   TOTAL N                                      378.51


   N INPUTS TO SYSTEM                kg[N]/ha
   ------------------                --------
   Seed N At Planting                    0.68
   N2 Fixed                            106.84
   N Uptake from Soil                  271.01
   TOTAL N                                      378.53

   * Lost due to senescence, freeze, pest or disease damage.

*******************************************************************************

*DSSAT Cropping System Model Ver. 4.6.1.000 -release      OCT 27, 2016; 10:38:10
                                                                                
*RUN   3        : UYSB                      CRGRO046 UYSB1005    1              
 MODEL          : CRGRO046 - Soybean                                            
 EXPERIMENT     : UYSB1005 SN late to create DSS                                
 DATA PATH      :                                                               
 TREATMENT  1   : UYSB                      CRGRO046                            
                                                                                
                                                                                
 CROP           : Soybean          CULTIVAR : GM 4 URUGUAY     ECOTYPE :INDETE  
 STARTING DATE  : OCT 25 2002                                                   
 PLANTING DATE  : OCT 28 2002        PLANTS/m2 :  7.0     ROW SPACING :  15.cm  
 WEATHER        : UYTA0201                                                      
 SOIL           : UYSS0N2002     TEXTURE : -99   -  N20-02    SNIA CLAY RISS    
 SOIL INITIAL C : DEPTH:125cm EXTR. H2O:154.7mm  NO3: 28.7kg/ha  NH4: 24.1kg/ha 
 WATER BALANCE  : AUTOMATIC IRRIGATION - REFILL PROFILE                         
 IRRIGATION     : AUTOMATIC - PLANTING -> MATURITY [ SOIL DEPTH: 0.30m 50.%]    
 NITROGEN BAL.  : SOIL-N, N-UPTAKE & DYNAMIC N-FIXATION SIMULATION              
 N-FERTILIZER   :      122 kg/ha IN     3 APPLICATIONS                          
 RESIDUE/MANURE : INITIAL :     0 kg/ha ;       0 kg/ha IN     0 APPLICATIONS   
 ENVIRONM. OPT. : DAYL=    0.00  SRAD=    0.00  TMAX=    0.00  TMIN=    0.00    
                  RAIN=    0.00  CO2 =    0.00  DEW =    0.00  WIND=    0.00    
 SIMULATION OPT : WATER   :Y  NITROGEN:Y  N-FIX:Y  PHOSPH :N  PESTS  :N         
                  PHOTO   :C  ET      :R  INFIL:S  HYDROL :R  SOM    :G         
                  CO2 374ppm  NSWIT   :1  EVAP :S  SOIL   :2  STEMP  :D         
 MANAGEMENT OPT : PLANTING:R  IRRIG   :A  FERT :D  RESIDUE:N  HARVEST:M         
                  WEATHER :M  TILLAGE :N                                        
                                                                                
*SUMMARY OF SOIL AND GENETIC INPUT PARAMETERS                                   
                                                                                
   SOIL LOWER UPPER   SAT  EXTR  INIT   ROOT   BULK     pH    NO3    NH4    ORG 
  DEPTH LIMIT LIMIT    SW    SW    SW   DIST   DENS                          C  
   cm   cm3/cm3    cm3/cm3    cm3/cm3         g/cm3         ugN/g  ugN/g     %  
------------------------------------------------------------------------------- 
  0-  5 0.215 0.440 0.484 0.225 0.282   1.00   1.05   0.40   5.00   1.50   4.64 
  5- 15 0.215 0.440 0.484 0.225 0.282   1.00   1.05   0.40   5.00   1.50   4.64 
 15- 30 0.215 0.440 0.484 0.225 0.282   1.00   1.05   0.40   5.00   1.50   4.64 
 30- 41 0.219 0.365 0.457 0.146 0.262   0.40   1.22   6.80   4.60   1.50   2.74 
 41- 53 0.219 0.365 0.457 0.146 0.262   0.40   1.22   6.80   4.60   1.50   2.74 
 53- 63 0.215 0.287 0.429 0.072 0.287   0.10   1.38   7.30   0.00   1.50   1.07 
 63- 74 0.215 0.287 0.429 0.072 0.287   0.10   1.38   7.30   0.00   1.50   1.07 
 74- 84 0.215 0.287 0.429 0.072 0.287   0.10   1.38   7.30   0.00   1.50   1.07 
 84-110 0.214 0.275 0.424 0.061 0.275   0.10   1.41   7.80   0.00   1.50   0.71 
110-125 0.209 0.312 0.438 0.103 0.312   0.00   1.44   8.00   0.00   1.50   0.35 
                                                                                
TOT-125  26.9  42.3  55.9  15.5  35.2  <--cm   -  kg/ha-->   28.7   24.1 302408 
SOIL ALBEDO    : 0.12      EVAPORATION LIMIT :10.00         MIN. FACTOR  : 1.00 
RUNOFF CURVE # : 0.75      DRAINAGE RATE     : 0.25         FERT. FACTOR : 1.00 
                                                                                
 Soybean    CULTIVAR :UY0141-GM 4 URUGUAY       ECOTYPE :INDETE                 
 CSDVAR :13.39  PPSEN  : 0.29  EMG-FLW:20.80  FLW-FSD:18.00  FSD-PHM : 36.00    
 WTPSD  :0.200  SDPDVR : 1.70  SDFDUR :26.00  PODDUR :10.00  XFRUIT  :  1.00    
 THRESH : 77.0  SDPRO  :0.405  SDLIP   : 0.205                                  


   PLANT COMPONENT  HARVEST     LOST*   TOTAL  BALANCE
   ---------------  -------- kg[N]/ha -------  -------
   Leaf N              0.86    18.24    19.10
   Stem N              5.79     2.92     8.71
   Shell N            19.39    23.49    42.88
   Seed N            208.01     0.00   208.01
   Root N              4.01     6.26    10.28
   Nodule N            1.33     2.54     3.87
   Total N           239.40    53.46   292.86
   N leakage                            18.02
   TOTAL N                                      310.88


   N INPUTS TO SYSTEM                kg[N]/ha
   ------------------                --------
   Seed N At Planting                    0.68
   N2 Fixed                             48.88
   N Uptake from Soil                  261.36
   TOTAL N                                      310.92

   * Lost due to senescence, freeze, pest or disease damage.

*******************************************************************************

*DSSAT Cropping System Model Ver. 4.6.1.000 -release      OCT 27, 2016; 10:38:10
                                                                                
*RUN   4        : UYSB                      CRGRO046 UYSB1005    1              
 MODEL          : CRGRO046 - Soybean                                            
 EXPERIMENT     : UYSB1005 SN late to create DSS                                
 DATA PATH      :                                                               
 TREATMENT  1   : UYSB                      CRGRO046                            
                                                                                
                                                                                
 CROP           : Soybean          CULTIVAR : GM 4 URUGUAY     ECOTYPE :INDETE  
 STARTING DATE  : OCT 25 2003                                                   
 PLANTING DATE  : OCT 28 2003        PLANTS/m2 :  7.0     ROW SPACING :  15.cm  
 WEATHER        : UYTA0301                                                      
 SOIL           : UYSS0N2002     TEXTURE : -99   -  N20-02    SNIA CLAY RISS    
 SOIL INITIAL C : DEPTH:125cm EXTR. H2O:154.7mm  NO3: 28.7kg/ha  NH4: 24.1kg/ha 
 WATER BALANCE  : AUTOMATIC IRRIGATION - REFILL PROFILE                         
 IRRIGATION     : AUTOMATIC - PLANTING -> MATURITY [ SOIL DEPTH: 0.30m 50.%]    
 NITROGEN BAL.  : SOIL-N, N-UPTAKE & DYNAMIC N-FIXATION SIMULATION              
 N-FERTILIZER   :      122 kg/ha IN     3 APPLICATIONS                          
 RESIDUE/MANURE : INITIAL :     0 kg/ha ;       0 kg/ha IN     0 APPLICATIONS   
 ENVIRONM. OPT. : DAYL=    0.00  SRAD=    0.00  TMAX=    0.00  TMIN=    0.00    
                  RAIN=    0.00  CO2 =    0.00  DEW =    0.00  WIND=    0.00    
 SIMULATION OPT : WATER   :Y  NITROGEN:Y  N-FIX:Y  PHOSPH :N  PESTS  :N         
                  PHOTO   :C  ET      :R  INFIL:S  HYDROL :R  SOM    :G         
                  CO2 376ppm  NSWIT   :1  EVAP :S  SOIL   :2  STEMP  :D         
 MANAGEMENT OPT : PLANTING:R  IRRIG   :A  FERT :D  RESIDUE:N  HARVEST:M         
                  WEATHER :M  TILLAGE :N                                        
                                                                                
*SUMMARY OF SOIL AND GENETIC INPUT PARAMETERS                                   
                                                                                
   SOIL LOWER UPPER   SAT  EXTR  INIT   ROOT   BULK     pH    NO3    NH4    ORG 
  DEPTH LIMIT LIMIT    SW    SW    SW   DIST   DENS                          C  
   cm   cm3/cm3    cm3/cm3    cm3/cm3         g/cm3         ugN/g  ugN/g     %  
------------------------------------------------------------------------------- 
  0-  5 0.215 0.440 0.484 0.225 0.282   1.00   1.05   0.40   5.00   1.50   4.64 
  5- 15 0.215 0.440 0.484 0.225 0.282   1.00   1.05   0.40   5.00   1.50   4.64 
 15- 30 0.215 0.440 0.484 0.225 0.282   1.00   1.05   0.40   5.00   1.50   4.64 
 30- 41 0.219 0.365 0.457 0.146 0.262   0.40   1.22   6.80   4.60   1.50   2.74 
 41- 53 0.219 0.365 0.457 0.146 0.262   0.40   1.22   6.80   4.60   1.50   2.74 
 53- 63 0.215 0.287 0.429 0.072 0.287   0.10   1.38   7.30   0.00   1.50   1.07 
 63- 74 0.215 0.287 0.429 0.072 0.287   0.10   1.38   7.30   0.00   1.50   1.07 
 74- 84 0.215 0.287 0.429 0.072 0.287   0.10   1.38   7.30   0.00   1.50   1.07 
 84-110 0.214 0.275 0.424 0.061 0.275   0.10   1.41   7.80   0.00   1.50   0.71 
110-125 0.209 0.312 0.438 0.103 0.312   0.00   1.44   8.00   0.00   1.50   0.35 
                                                                                
TOT-125  26.9  42.3  55.9  15.5  35.2  <--cm   -  kg/ha-->   28.7   24.1 302408 
SOIL ALBEDO    : 0.12      EVAPORATION LIMIT :10.00         MIN. FACTOR  : 1.00 
RUNOFF CURVE # : 0.75      DRAINAGE RATE     : 0.25         FERT. FACTOR : 1.00 
                                                                                
 Soybean    CULTIVAR :UY0141-GM 4 URUGUAY       ECOTYPE :INDETE                 
 CSDVAR :13.39  PPSEN  : 0.29  EMG-FLW:20.80  FLW-FSD:18.00  FSD-PHM : 36.00    
 WTPSD  :0.200  SDPDVR : 1.70  SDFDUR :26.00  PODDUR :10.00  XFRUIT  :  1.00    
 THRESH : 77.0  SDPRO  :0.405  SDLIP   : 0.205                                  


   PLANT COMPONENT  HARVEST     LOST*   TOTAL  BALANCE
   ---------------  -------- kg[N]/ha -------  -------
   Leaf N              1.24    25.00    26.24
   Stem N              7.68     4.13    11.81
   Shell N            23.05    23.93    46.98
   Seed N            268.11     0.00   268.11
   Root N              6.39     7.25    13.64
   Nodule N            2.64     4.73     7.37
   Total N           309.10    65.05   374.15
   N leakage                            18.25
   TOTAL N                                      392.39


   N INPUTS TO SYSTEM                kg[N]/ha
   ------------------                --------
   Seed N At Planting                    0.68
   N2 Fixed                            119.37
   N Uptake from Soil                  272.38
   TOTAL N                                      392.43

   * Lost due to senescence, freeze, pest or disease damage.

*******************************************************************************

*DSSAT Cropping System Model Ver. 4.6.1.000 -release      OCT 27, 2016; 10:38:10
                                                                                
*RUN   5        : UYSB                      CRGRO046 UYSB1005    1              
 MODEL          : CRGRO046 - Soybean                                            
 EXPERIMENT     : UYSB1005 SN late to create DSS                                
 DATA PATH      :                                                               
 TREATMENT  1   : UYSB                      CRGRO046                            
                                                                                
                                                                                
 CROP           : Soybean          CULTIVAR : GM 4 URUGUAY     ECOTYPE :INDETE  
 STARTING DATE  : OCT 24 2004                                                   
 PLANTING DATE  : OCT 27 2004        PLANTS/m2 :  7.0     ROW SPACING :  15.cm  
 WEATHER        : UYTA0401                                                      
 SOIL           : UYSS0N2002     TEXTURE : -99   -  N20-02    SNIA CLAY RISS    
 SOIL INITIAL C : DEPTH:125cm EXTR. H2O:154.7mm  NO3: 28.7kg/ha  NH4: 24.1kg/ha 
 WATER BALANCE  : AUTOMATIC IRRIGATION - REFILL PROFILE                         
 IRRIGATION     : AUTOMATIC - PLANTING -> MATURITY [ SOIL DEPTH: 0.30m 50.%]    
 NITROGEN BAL.  : SOIL-N, N-UPTAKE & DYNAMIC N-FIXATION SIMULATION              
 N-FERTILIZER   :      122 kg/ha IN     3 APPLICATIONS                          
 RESIDUE/MANURE : INITIAL :     0 kg/ha ;       0 kg/ha IN     0 APPLICATIONS   
 ENVIRONM. OPT. : DAYL=    0.00  SRAD=    0.00  TMAX=    0.00  TMIN=    0.00    
                  RAIN=    0.00  CO2 =    0.00  DEW =    0.00  WIND=    0.00    
 SIMULATION OPT : WATER   :Y  NITROGEN:Y  N-FIX:Y  PHOSPH :N  PESTS  :N         
                  PHOTO   :C  ET      :R  INFIL:S  HYDROL :R  SOM    :G         
                  CO2 378ppm  NSWIT   :1  EVAP :S  SOIL   :2  STEMP  :D         
 MANAGEMENT OPT : PLANTING:R  IRRIG   :A  FERT :D  RESIDUE:N  HARVEST:M         
                  WEATHER :M  TILLAGE :N                                        
                                                                                
*SUMMARY OF SOIL AND GENETIC INPUT PARAMETERS                                   
                                                                                
   SOIL LOWER UPPER   SAT  EXTR  INIT   ROOT   BULK     pH    NO3    NH4    ORG 
  DEPTH LIMIT LIMIT    SW    SW    SW   DIST   DENS                          C  
   cm   cm3/cm3    cm3/cm3    cm3/cm3         g/cm3         ugN/g  ugN/g     %  
------------------------------------------------------------------------------- 
  0-  5 0.215 0.440 0.484 0.225 0.282   1.00   1.05   0.40   5.00   1.50   4.64 
  5- 15 0.215 0.440 0.484 0.225 0.282   1.00   1.05   0.40   5.00   1.50   4.64 
 15- 30 0.215 0.440 0.484 0.225 0.282   1.00   1.05   0.40   5.00   1.50   4.64 
 30- 41 0.219 0.365 0.457 0.146 0.262   0.40   1.22   6.80   4.60   1.50   2.74 
 41- 53 0.219 0.365 0.457 0.146 0.262   0.40   1.22   6.80   4.60   1.50   2.74 
 53- 63 0.215 0.287 0.429 0.072 0.287   0.10   1.38   7.30   0.00   1.50   1.07 
 63- 74 0.215 0.287 0.429 0.072 0.287   0.10   1.38   7.30   0.00   1.50   1.07 
 74- 84 0.215 0.287 0.429 0.072 0.287   0.10   1.38   7.30   0.00   1.50   1.07 
 84-110 0.214 0.275 0.424 0.061 0.275   0.10   1.41   7.80   0.00   1.50   0.71 
110-125 0.209 0.312 0.438 0.103 0.312   0.00   1.44   8.00   0.00   1.50   0.35 
                                                                                
TOT-125  26.9  42.3  55.9  15.5  35.2  <--cm   -  kg/ha-->   28.7   24.1 302408 
SOIL ALBEDO    : 0.12      EVAPORATION LIMIT :10.00         MIN. FACTOR  : 1.00 
RUNOFF CURVE # : 0.75      DRAINAGE RATE     : 0.25         FERT. FACTOR : 1.00 
                                                                                
 Soybean    CULTIVAR :UY0141-GM 4 URUGUAY       ECOTYPE :INDETE                 
 CSDVAR :13.39  PPSEN  : 0.29  EMG-FLW:20.80  FLW-FSD:18.00  FSD-PHM : 36.00    
 WTPSD  :0.200  SDPDVR : 1.70  SDFDUR :26.00  PODDUR :10.00  XFRUIT  :  1.00    
 THRESH : 77.0  SDPRO  :0.405  SDLIP   : 0.205                                  


   PLANT COMPONENT  HARVEST     LOST*   TOTAL  BALANCE
   ---------------  -------- kg[N]/ha -------  -------
   Leaf N              1.24    25.63    26.87
   Stem N              8.21     4.30    12.51
   Shell N            22.43    37.60    60.03
   Seed N            234.07     0.00   234.07
   Root N              6.78     7.21    13.99
   Nodule N            2.01     4.66     6.67
   Total N           274.74    79.40   354.14
   N leakage                            21.27
   TOTAL N                                      375.41


   N INPUTS TO SYSTEM                kg[N]/ha
   ------------------                --------
   Seed N At Planting                    0.68
   N2 Fixed                             95.28
   N Uptake from Soil                  279.51
   TOTAL N                                      375.47

   * Lost due to senescence, freeze, pest or disease damage.

*******************************************************************************

*DSSAT Cropping System Model Ver. 4.6.1.000 -release      OCT 27, 2016; 10:38:10
                                                                                
*RUN   6        : UYSB                      CRGRO046 UYSB1005    1              
 MODEL          : CRGRO046 - Soybean                                            
 EXPERIMENT     : UYSB1005 SN late to create DSS                                
 DATA PATH      :                                                               
 TREATMENT  1   : UYSB                      CRGRO046                            
                                                                                
                                                                                
 CROP           : Soybean          CULTIVAR : GM 4 URUGUAY     ECOTYPE :INDETE  
 STARTING DATE  : OCT 25 2005                                                   
 PLANTING DATE  : OCT 28 2005        PLANTS/m2 :  7.0     ROW SPACING :  15.cm  
 WEATHER        : UYTA0501                                                      
 SOIL           : UYSS0N2002     TEXTURE : -99   -  N20-02    SNIA CLAY RISS    
 SOIL INITIAL C : DEPTH:125cm EXTR. H2O:154.7mm  NO3: 28.7kg/ha  NH4: 24.1kg/ha 
 WATER BALANCE  : AUTOMATIC IRRIGATION - REFILL PROFILE                         
 IRRIGATION     : AUTOMATIC - PLANTING -> MATURITY [ SOIL DEPTH: 0.30m 50.%]    
 NITROGEN BAL.  : SOIL-N, N-UPTAKE & DYNAMIC N-FIXATION SIMULATION              
 N-FERTILIZER   :      122 kg/ha IN     3 APPLICATIONS                          
 RESIDUE/MANURE : INITIAL :     0 kg/ha ;       0 kg/ha IN     0 APPLICATIONS   
 ENVIRONM. OPT. : DAYL=    0.00  SRAD=    0.00  TMAX=    0.00  TMIN=    0.00    
                  RAIN=    0.00  CO2 =    0.00  DEW =    0.00  WIND=    0.00    
 SIMULATION OPT : WATER   :Y  NITROGEN:Y  N-FIX:Y  PHOSPH :N  PESTS  :N         
                  PHOTO   :C  ET      :R  INFIL:S  HYDROL :R  SOM    :G         
                  CO2 380ppm  NSWIT   :1  EVAP :S  SOIL   :2  STEMP  :D         
 MANAGEMENT OPT : PLANTING:R  IRRIG   :A  FERT :D  RESIDUE:N  HARVEST:M         
                  WEATHER :M  TILLAGE :N                                        
                                                                                
*SUMMARY OF SOIL AND GENETIC INPUT PARAMETERS                                   
                                                                                
   SOIL LOWER UPPER   SAT  EXTR  INIT   ROOT   BULK     pH    NO3    NH4    ORG 
  DEPTH LIMIT LIMIT    SW    SW    SW   DIST   DENS                          C  
   cm   cm3/cm3    cm3/cm3    cm3/cm3         g/cm3         ugN/g  ugN/g     %  
------------------------------------------------------------------------------- 
  0-  5 0.215 0.440 0.484 0.225 0.282   1.00   1.05   0.40   5.00   1.50   4.64 
  5- 15 0.215 0.440 0.484 0.225 0.282   1.00   1.05   0.40   5.00   1.50   4.64 
 15- 30 0.215 0.440 0.484 0.225 0.282   1.00   1.05   0.40   5.00   1.50   4.64 
 30- 41 0.219 0.365 0.457 0.146 0.262   0.40   1.22   6.80   4.60   1.50   2.74 
 41- 53 0.219 0.365 0.457 0.146 0.262   0.40   1.22   6.80   4.60   1.50   2.74 
 53- 63 0.215 0.287 0.429 0.072 0.287   0.10   1.38   7.30   0.00   1.50   1.07 
 63- 74 0.215 0.287 0.429 0.072 0.287   0.10   1.38   7.30   0.00   1.50   1.07 
 74- 84 0.215 0.287 0.429 0.072 0.287   0.10   1.38   7.30   0.00   1.50   1.07 
 84-110 0.214 0.275 0.424 0.061 0.275   0.10   1.41   7.80   0.00   1.50   0.71 
110-125 0.209 0.312 0.438 0.103 0.312   0.00   1.44   8.00   0.00   1.50   0.35 
                                                                                
TOT-125  26.9  42.3  55.9  15.5  35.2  <--cm   -  kg/ha-->   28.7   24.1 302408 
SOIL ALBEDO    : 0.12      EVAPORATION LIMIT :10.00         MIN. FACTOR  : 1.00 
RUNOFF CURVE # : 0.75      DRAINAGE RATE     : 0.25         FERT. FACTOR : 1.00 
                                                                                
 Soybean    CULTIVAR :UY0141-GM 4 URUGUAY       ECOTYPE :INDETE                 
 CSDVAR :13.39  PPSEN  : 0.29  EMG-FLW:20.80  FLW-FSD:18.00  FSD-PHM : 36.00    
 WTPSD  :0.200  SDPDVR : 1.70  SDFDUR :26.00  PODDUR :10.00  XFRUIT  :  1.00    
 THRESH : 77.0  SDPRO  :0.405  SDLIP   : 0.205                                  


   PLANT COMPONENT  HARVEST     LOST*   TOTAL  BALANCE
   ---------------  -------- kg[N]/ha -------  -------
   Leaf N              1.17    25.09    26.26
   Stem N              7.61     4.13    11.75
   Shell N            21.45    26.53    47.98
   Seed N            274.37     0.00   274.37
   Root N              6.20     7.69    13.89
   Nodule N            3.28     5.07     8.35
   Total N           314.09    68.52   382.60
   N leakage                             8.49
   TOTAL N                                      391.10


   N INPUTS TO SYSTEM                kg[N]/ha
   ------------------                --------
   Seed N At Planting                    0.68
   N2 Fixed                            147.29
   N Uptake from Soil                  243.22
   TOTAL N                                      391.18

   * Lost due to senescence, freeze, pest or disease damage.

*******************************************************************************

*DSSAT Cropping System Model Ver. 4.6.1.000 -release      OCT 27, 2016; 10:38:10
                                                                                
*RUN   7        : UYSB                      CRGRO046 UYSB1005    1              
 MODEL          : CRGRO046 - Soybean                                            
 EXPERIMENT     : UYSB1005 SN late to create DSS                                
 DATA PATH      :                                                               
 TREATMENT  1   : UYSB                      CRGRO046                            
                                                                                
                                                                                
 CROP           : Soybean          CULTIVAR : GM 4 URUGUAY     ECOTYPE :INDETE  
 STARTING DATE  : OCT 25 2006                                                   
 PLANTING DATE  : OCT 28 2006        PLANTS/m2 :  7.0     ROW SPACING :  15.cm  
 WEATHER        : UYTA0601                                                      
 SOIL           : UYSS0N2002     TEXTURE : -99   -  N20-02    SNIA CLAY RISS    
 SOIL INITIAL C : DEPTH:125cm EXTR. H2O:154.7mm  NO3: 28.7kg/ha  NH4: 24.1kg/ha 
 WATER BALANCE  : AUTOMATIC IRRIGATION - REFILL PROFILE                         
 IRRIGATION     : AUTOMATIC - PLANTING -> MATURITY [ SOIL DEPTH: 0.30m 50.%]    
 NITROGEN BAL.  : SOIL-N, N-UPTAKE & DYNAMIC N-FIXATION SIMULATION              
 N-FERTILIZER   :      122 kg/ha IN     3 APPLICATIONS                          
 RESIDUE/MANURE : INITIAL :     0 kg/ha ;       0 kg/ha IN     0 APPLICATIONS   
 ENVIRONM. OPT. : DAYL=    0.00  SRAD=    0.00  TMAX=    0.00  TMIN=    0.00    
                  RAIN=    0.00  CO2 =    0.00  DEW =    0.00  WIND=    0.00    
 SIMULATION OPT : WATER   :Y  NITROGEN:Y  N-FIX:Y  PHOSPH :N  PESTS  :N         
                  PHOTO   :C  ET      :R  INFIL:S  HYDROL :R  SOM    :G         
                  CO2 382ppm  NSWIT   :1  EVAP :S  SOIL   :2  STEMP  :D         
 MANAGEMENT OPT : PLANTING:R  IRRIG   :A  FERT :D  RESIDUE:N  HARVEST:M         
                  WEATHER :M  TILLAGE :N                                        
                                                                                
*SUMMARY OF SOIL AND GENETIC INPUT PARAMETERS                                   
                                                                                
   SOIL LOWER UPPER   SAT  EXTR  INIT   ROOT   BULK     pH    NO3    NH4    ORG 
  DEPTH LIMIT LIMIT    SW    SW    SW   DIST   DENS                          C  
   cm   cm3/cm3    cm3/cm3    cm3/cm3         g/cm3         ugN/g  ugN/g     %  
------------------------------------------------------------------------------- 
  0-  5 0.215 0.440 0.484 0.225 0.282   1.00   1.05   0.40   5.00   1.50   4.64 
  5- 15 0.215 0.440 0.484 0.225 0.282   1.00   1.05   0.40   5.00   1.50   4.64 
 15- 30 0.215 0.440 0.484 0.225 0.282   1.00   1.05   0.40   5.00   1.50   4.64 
 30- 41 0.219 0.365 0.457 0.146 0.262   0.40   1.22   6.80   4.60   1.50   2.74 
 41- 53 0.219 0.365 0.457 0.146 0.262   0.40   1.22   6.80   4.60   1.50   2.74 
 53- 63 0.215 0.287 0.429 0.072 0.287   0.10   1.38   7.30   0.00   1.50   1.07 
 63- 74 0.215 0.287 0.429 0.072 0.287   0.10   1.38   7.30   0.00   1.50   1.07 
 74- 84 0.215 0.287 0.429 0.072 0.287   0.10   1.38   7.30   0.00   1.50   1.07 
 84-110 0.214 0.275 0.424 0.061 0.275   0.10   1.41   7.80   0.00   1.50   0.71 
110-125 0.209 0.312 0.438 0.103 0.312   0.00   1.44   8.00   0.00   1.50   0.35 
                                                                                
TOT-125  26.9  42.3  55.9  15.5  35.2  <--cm   -  kg/ha-->   28.7   24.1 302408 
SOIL ALBEDO    : 0.12      EVAPORATION LIMIT :10.00         MIN. FACTOR  : 1.00 
RUNOFF CURVE # : 0.75      DRAINAGE RATE     : 0.25         FERT. FACTOR : 1.00 
                                                                                
 Soybean    CULTIVAR :UY0141-GM 4 URUGUAY       ECOTYPE :INDETE                 
 CSDVAR :13.39  PPSEN  : 0.29  EMG-FLW:20.80  FLW-FSD:18.00  FSD-PHM : 36.00    
 WTPSD  :0.200  SDPDVR : 1.70  SDFDUR :26.00  PODDUR :10.00  XFRUIT  :  1.00    
 THRESH : 77.0  SDPRO  :0.405  SDLIP   : 0.205                                  


   PLANT COMPONENT  HARVEST     LOST*   TOTAL  BALANCE
   ---------------  -------- kg[N]/ha -------  -------
   Leaf N              1.03    22.28    23.32
   Stem N              7.24     3.65    10.88
   Shell N            22.24    32.83    55.07
   Seed N            264.67     0.00   264.67
   Root N              3.60     8.51    12.11
   Nodule N            2.34     3.87     6.21
   Total N           301.11    71.15   372.25
   N leakage                            17.86
   TOTAL N                                      390.11


   N INPUTS TO SYSTEM                kg[N]/ha
   ------------------                --------
   Seed N At Planting                    0.68
   N2 Fixed                             96.24
   N Uptake from Soil                  293.25
   TOTAL N                                      390.17

   * Lost due to senescence, freeze, pest or disease damage.

*******************************************************************************

*DSSAT Cropping System Model Ver. 4.6.1.000 -release      OCT 27, 2016; 10:38:10
                                                                                
*RUN   8        : UYSB                      CRGRO046 UYSB1005    1              
 MODEL          : CRGRO046 - Soybean                                            
 EXPERIMENT     : UYSB1005 SN late to create DSS                                
 DATA PATH      :                                                               
 TREATMENT  1   : UYSB                      CRGRO046                            
                                                                                
                                                                                
 CROP           : Soybean          CULTIVAR : GM 4 URUGUAY     ECOTYPE :INDETE  
 STARTING DATE  : OCT 25 2007                                                   
 PLANTING DATE  : OCT 28 2007        PLANTS/m2 :  7.0     ROW SPACING :  15.cm  
 WEATHER        : UYTA0701                                                      
 SOIL           : UYSS0N2002     TEXTURE : -99   -  N20-02    SNIA CLAY RISS    
 SOIL INITIAL C : DEPTH:125cm EXTR. H2O:154.7mm  NO3: 28.7kg/ha  NH4: 24.1kg/ha 
 WATER BALANCE  : AUTOMATIC IRRIGATION - REFILL PROFILE                         
 IRRIGATION     : AUTOMATIC - PLANTING -> MATURITY [ SOIL DEPTH: 0.30m 50.%]    
 NITROGEN BAL.  : SOIL-N, N-UPTAKE & DYNAMIC N-FIXATION SIMULATION              
 N-FERTILIZER   :      122 kg/ha IN     3 APPLICATIONS                          
 RESIDUE/MANURE : INITIAL :     0 kg/ha ;       0 kg/ha IN     0 APPLICATIONS   
 ENVIRONM. OPT. : DAYL=    0.00  SRAD=    0.00  TMAX=    0.00  TMIN=    0.00    
                  RAIN=    0.00  CO2 =    0.00  DEW =    0.00  WIND=    0.00    
 SIMULATION OPT : WATER   :Y  NITROGEN:Y  N-FIX:Y  PHOSPH :N  PESTS  :N         
                  PHOTO   :C  ET      :R  INFIL:S  HYDROL :R  SOM    :G         
                  CO2 384ppm  NSWIT   :1  EVAP :S  SOIL   :2  STEMP  :D         
 MANAGEMENT OPT : PLANTING:R  IRRIG   :A  FERT :D  RESIDUE:N  HARVEST:M         
                  WEATHER :M  TILLAGE :N                                        
                                                                                
*SUMMARY OF SOIL AND GENETIC INPUT PARAMETERS                                   
                                                                                
   SOIL LOWER UPPER   SAT  EXTR  INIT   ROOT   BULK     pH    NO3    NH4    ORG 
  DEPTH LIMIT LIMIT    SW    SW    SW   DIST   DENS                          C  
   cm   cm3/cm3    cm3/cm3    cm3/cm3         g/cm3         ugN/g  ugN/g     %  
------------------------------------------------------------------------------- 
  0-  5 0.215 0.440 0.484 0.225 0.282   1.00   1.05   0.40   5.00   1.50   4.64 
  5- 15 0.215 0.440 0.484 0.225 0.282   1.00   1.05   0.40   5.00   1.50   4.64 
 15- 30 0.215 0.440 0.484 0.225 0.282   1.00   1.05   0.40   5.00   1.50   4.64 
 30- 41 0.219 0.365 0.457 0.146 0.262   0.40   1.22   6.80   4.60   1.50   2.74 
 41- 53 0.219 0.365 0.457 0.146 0.262   0.40   1.22   6.80   4.60   1.50   2.74 
 53- 63 0.215 0.287 0.429 0.072 0.287   0.10   1.38   7.30   0.00   1.50   1.07 
 63- 74 0.215 0.287 0.429 0.072 0.287   0.10   1.38   7.30   0.00   1.50   1.07 
 74- 84 0.215 0.287 0.429 0.072 0.287   0.10   1.38   7.30   0.00   1.50   1.07 
 84-110 0.214 0.275 0.424 0.061 0.275   0.10   1.41   7.80   0.00   1.50   0.71 
110-125 0.209 0.312 0.438 0.103 0.312   0.00   1.44   8.00   0.00   1.50   0.35 
                                                                                
TOT-125  26.9  42.3  55.9  15.5  35.2  <--cm   -  kg/ha-->   28.7   24.1 302408 
SOIL ALBEDO    : 0.12      EVAPORATION LIMIT :10.00         MIN. FACTOR  : 1.00 
RUNOFF CURVE # : 0.75      DRAINAGE RATE     : 0.25         FERT. FACTOR : 1.00 
                                                                                
 Soybean    CULTIVAR :UY0141-GM 4 URUGUAY       ECOTYPE :INDETE                 
 CSDVAR :13.39  PPSEN  : 0.29  EMG-FLW:20.80  FLW-FSD:18.00  FSD-PHM : 36.00    
 WTPSD  :0.200  SDPDVR : 1.70  SDFDUR :26.00  PODDUR :10.00  XFRUIT  :  1.00    
 THRESH : 77.0  SDPRO  :0.405  SDLIP   : 0.205                                  


   PLANT COMPONENT  HARVEST     LOST*   TOTAL  BALANCE
   ---------------  -------- kg[N]/ha -------  -------
   Leaf N              1.10    23.78    24.88
   Stem N              7.34     3.92    11.26
   Shell N            19.87    28.83    48.70
   Seed N            267.40     0.00   267.40
   Root N              5.98     7.85    13.83
   Nodule N            3.08     5.16     8.23
   Total N           304.76    69.54   374.30
   N leakage                            16.59
   TOTAL N                                      390.89


   N INPUTS TO SYSTEM                kg[N]/ha
   ------------------                --------
   Seed N At Planting                    0.68
   N2 Fixed                            150.07
   N Uptake from Soil                  240.19
   TOTAL N                                      390.94

   * Lost due to senescence, freeze, pest or disease damage.

*******************************************************************************

*DSSAT Cropping System Model Ver. 4.6.1.000 -release      OCT 27, 2016; 10:38:10
                                                                                
*RUN   9        : UYSB                      CRGRO046 UYSB1005    1              
 MODEL          : CRGRO046 - Soybean                                            
 EXPERIMENT     : UYSB1005 SN late to create DSS                                
 DATA PATH      :                                                               
 TREATMENT  1   : UYSB                      CRGRO046                            
                                                                                
                                                                                
 CROP           : Soybean          CULTIVAR : GM 4 URUGUAY     ECOTYPE :INDETE  
 STARTING DATE  : OCT 24 2008                                                   
 PLANTING DATE  : OCT 27 2008        PLANTS/m2 :  7.0     ROW SPACING :  15.cm  
 WEATHER        : UYTA0801                                                      
 SOIL           : UYSS0N2002     TEXTURE : -99   -  N20-02    SNIA CLAY RISS    
 SOIL INITIAL C : DEPTH:125cm EXTR. H2O:154.7mm  NO3: 28.7kg/ha  NH4: 24.1kg/ha 
 WATER BALANCE  : AUTOMATIC IRRIGATION - REFILL PROFILE                         
 IRRIGATION     : AUTOMATIC - PLANTING -> MATURITY [ SOIL DEPTH: 0.30m 50.%]    
 NITROGEN BAL.  : SOIL-N, N-UPTAKE & DYNAMIC N-FIXATION SIMULATION              
 N-FERTILIZER   :      122 kg/ha IN     3 APPLICATIONS                          
 RESIDUE/MANURE : INITIAL :     0 kg/ha ;       0 kg/ha IN     0 APPLICATIONS   
 ENVIRONM. OPT. : DAYL=    0.00  SRAD=    0.00  TMAX=    0.00  TMIN=    0.00    
                  RAIN=    0.00  CO2 =    0.00  DEW =    0.00  WIND=    0.00    
 SIMULATION OPT : WATER   :Y  NITROGEN:Y  N-FIX:Y  PHOSPH :N  PESTS  :N         
                  PHOTO   :C  ET      :R  INFIL:S  HYDROL :R  SOM    :G         
                  CO2 386ppm  NSWIT   :1  EVAP :S  SOIL   :2  STEMP  :D         
 MANAGEMENT OPT : PLANTING:R  IRRIG   :A  FERT :D  RESIDUE:N  HARVEST:M         
                  WEATHER :M  TILLAGE :N                                        
                                                                                
*SUMMARY OF SOIL AND GENETIC INPUT PARAMETERS                                   
                                                                                
   SOIL LOWER UPPER   SAT  EXTR  INIT   ROOT   BULK     pH    NO3    NH4    ORG 
  DEPTH LIMIT LIMIT    SW    SW    SW   DIST   DENS                          C  
   cm   cm3/cm3    cm3/cm3    cm3/cm3         g/cm3         ugN/g  ugN/g     %  
------------------------------------------------------------------------------- 
  0-  5 0.215 0.440 0.484 0.225 0.282   1.00   1.05   0.40   5.00   1.50   4.64 
  5- 15 0.215 0.440 0.484 0.225 0.282   1.00   1.05   0.40   5.00   1.50   4.64 
 15- 30 0.215 0.440 0.484 0.225 0.282   1.00   1.05   0.40   5.00   1.50   4.64 
 30- 41 0.219 0.365 0.457 0.146 0.262   0.40   1.22   6.80   4.60   1.50   2.74 
 41- 53 0.219 0.365 0.457 0.146 0.262   0.40   1.22   6.80   4.60   1.50   2.74 
 53- 63 0.215 0.287 0.429 0.072 0.287   0.10   1.38   7.30   0.00   1.50   1.07 
 63- 74 0.215 0.287 0.429 0.072 0.287   0.10   1.38   7.30   0.00   1.50   1.07 
 74- 84 0.215 0.287 0.429 0.072 0.287   0.10   1.38   7.30   0.00   1.50   1.07 
 84-110 0.214 0.275 0.424 0.061 0.275   0.10   1.41   7.80   0.00   1.50   0.71 
110-125 0.209 0.312 0.438 0.103 0.312   0.00   1.44   8.00   0.00   1.50   0.35 
                                                                                
TOT-125  26.9  42.3  55.9  15.5  35.2  <--cm   -  kg/ha-->   28.7   24.1 302408 
SOIL ALBEDO    : 0.12      EVAPORATION LIMIT :10.00         MIN. FACTOR  : 1.00 
RUNOFF CURVE # : 0.75      DRAINAGE RATE     : 0.25         FERT. FACTOR : 1.00 
                                                                                
 Soybean    CULTIVAR :UY0141-GM 4 URUGUAY       ECOTYPE :INDETE                 
 CSDVAR :13.39  PPSEN  : 0.29  EMG-FLW:20.80  FLW-FSD:18.00  FSD-PHM : 36.00    
 WTPSD  :0.200  SDPDVR : 1.70  SDFDUR :26.00  PODDUR :10.00  XFRUIT  :  1.00    
 THRESH : 77.0  SDPRO  :0.405  SDLIP   : 0.205                                  


   PLANT COMPONENT  HARVEST     LOST*   TOTAL  BALANCE
   ---------------  -------- kg[N]/ha -------  -------
   Leaf N              1.10    24.02    25.12
   Stem N              7.56     3.96    11.53
   Shell N            20.80    32.73    53.53
   Seed N            271.04     0.00   271.04
   Root N              5.87     7.65    13.52
   Nodule N            3.05     4.78     7.83
   Total N           309.44    73.14   382.57
   N leakage                            19.57
   TOTAL N                                      402.14


   N INPUTS TO SYSTEM                kg[N]/ha
   ------------------                --------
   Seed N At Planting                    0.68
   N2 Fixed                            147.07
   N Uptake from Soil                  254.45
   TOTAL N                                      402.20

   * Lost due to senescence, freeze, pest or disease damage.

*******************************************************************************

*DSSAT Cropping System Model Ver. 4.6.1.000 -release      OCT 27, 2016; 10:38:10
                                                                                
*RUN  10        : UYSB                      CRGRO046 UYSB1005    1              
 MODEL          : CRGRO046 - Soybean                                            
 EXPERIMENT     : UYSB1005 SN late to create DSS                                
 DATA PATH      :                                                               
 TREATMENT  1   : UYSB                      CRGRO046                            
                                                                                
                                                                                
 CROP           : Soybean          CULTIVAR : GM 4 URUGUAY     ECOTYPE :INDETE  
 STARTING DATE  : OCT 25 2009                                                   
 PLANTING DATE  : OCT 28 2009        PLANTS/m2 :  7.0     ROW SPACING :  15.cm  
 WEATHER        : UYTA0901                                                      
 SOIL           : UYSS0N2002     TEXTURE : -99   -  N20-02    SNIA CLAY RISS    
 SOIL INITIAL C : DEPTH:125cm EXTR. H2O:154.7mm  NO3: 28.7kg/ha  NH4: 24.1kg/ha 
 WATER BALANCE  : AUTOMATIC IRRIGATION - REFILL PROFILE                         
 IRRIGATION     : AUTOMATIC - PLANTING -> MATURITY [ SOIL DEPTH: 0.30m 50.%]    
 NITROGEN BAL.  : SOIL-N, N-UPTAKE & DYNAMIC N-FIXATION SIMULATION              
 N-FERTILIZER   :      122 kg/ha IN     3 APPLICATIONS                          
 RESIDUE/MANURE : INITIAL :     0 kg/ha ;       0 kg/ha IN     0 APPLICATIONS   
 ENVIRONM. OPT. : DAYL=    0.00  SRAD=    0.00  TMAX=    0.00  TMIN=    0.00    
                  RAIN=    0.00  CO2 =    0.00  DEW =    0.00  WIND=    0.00    
 SIMULATION OPT : WATER   :Y  NITROGEN:Y  N-FIX:Y  PHOSPH :N  PESTS  :N         
                  PHOTO   :C  ET      :R  INFIL:S  HYDROL :R  SOM    :G         
                  CO2 388ppm  NSWIT   :1  EVAP :S  SOIL   :2  STEMP  :D         
 MANAGEMENT OPT : PLANTING:R  IRRIG   :A  FERT :D  RESIDUE:N  HARVEST:M         
                  WEATHER :M  TILLAGE :N                                        
                                                                                
*SUMMARY OF SOIL AND GENETIC INPUT PARAMETERS                                   
                                                                                
   SOIL LOWER UPPER   SAT  EXTR  INIT   ROOT   BULK     pH    NO3    NH4    ORG 
  DEPTH LIMIT LIMIT    SW    SW    SW   DIST   DENS                          C  
   cm   cm3/cm3    cm3/cm3    cm3/cm3         g/cm3         ugN/g  ugN/g     %  
------------------------------------------------------------------------------- 
  0-  5 0.215 0.440 0.484 0.225 0.282   1.00   1.05   0.40   5.00   1.50   4.64 
  5- 15 0.215 0.440 0.484 0.225 0.282   1.00   1.05   0.40   5.00   1.50   4.64 
 15- 30 0.215 0.440 0.484 0.225 0.282   1.00   1.05   0.40   5.00   1.50   4.64 
 30- 41 0.219 0.365 0.457 0.146 0.262   0.40   1.22   6.80   4.60   1.50   2.74 
 41- 53 0.219 0.365 0.457 0.146 0.262   0.40   1.22   6.80   4.60   1.50   2.74 
 53- 63 0.215 0.287 0.429 0.072 0.287   0.10   1.38   7.30   0.00   1.50   1.07 
 63- 74 0.215 0.287 0.429 0.072 0.287   0.10   1.38   7.30   0.00   1.50   1.07 
 74- 84 0.215 0.287 0.429 0.072 0.287   0.10   1.38   7.30   0.00   1.50   1.07 
 84-110 0.214 0.275 0.424 0.061 0.275   0.10   1.41   7.80   0.00   1.50   0.71 
110-125 0.209 0.312 0.438 0.103 0.312   0.00   1.44   8.00   0.00   1.50   0.35 
                                                                                
TOT-125  26.9  42.3  55.9  15.5  35.2  <--cm   -  kg/ha-->   28.7   24.1 302408 
SOIL ALBEDO    : 0.12      EVAPORATION LIMIT :10.00         MIN. FACTOR  : 1.00 
RUNOFF CURVE # : 0.75      DRAINAGE RATE     : 0.25         FERT. FACTOR : 1.00 
                                                                                
 Soybean    CULTIVAR :UY0141-GM 4 URUGUAY       ECOTYPE :INDETE                 
 CSDVAR :13.39  PPSEN  : 0.29  EMG-FLW:20.80  FLW-FSD:18.00  FSD-PHM : 36.00    
 WTPSD  :0.200  SDPDVR : 1.70  SDFDUR :26.00  PODDUR :10.00  XFRUIT  :  1.00    
 THRESH : 77.0  SDPRO  :0.405  SDLIP   : 0.205                                  


   PLANT COMPONENT  HARVEST     LOST*   TOTAL  BALANCE
   ---------------  -------- kg[N]/ha -------  -------
   Leaf N              0.96    19.97    20.93
   Stem N              6.59     3.31     9.90
   Shell N            19.39    23.68    43.07
   Seed N            206.19     0.00   206.19
   Root N              3.40     7.71    11.11
   Nodule N            1.68     2.89     4.57
   Total N           238.21    57.55   295.77
   N leakage                            16.17
   TOTAL N                                      311.94


   N INPUTS TO SYSTEM                kg[N]/ha
   ------------------                --------
   Seed N At Planting                    0.68
   N2 Fixed                             72.52
   N Uptake from Soil                  238.77
   TOTAL N                                      311.97

   * Lost due to senescence, freeze, pest or disease damage.

*******************************************************************************

*DSSAT Cropping System Model Ver. 4.6.1.000 -release      OCT 27, 2016; 10:38:10
                                                                                
*RUN  11        : UYSB                      CRGRO046 UYSB1005    1              
 MODEL          : CRGRO046 - Soybean                                            
 EXPERIMENT     : UYSB1005 SN late to create DSS                                
 DATA PATH      :                                                               
 TREATMENT  1   : UYSB                      CRGRO046                            
                                                                                
                                                                                
 CROP           : Soybean          CULTIVAR : GM 4 URUGUAY     ECOTYPE :INDETE  
 STARTING DATE  : OCT 25 2010                                                   
 PLANTING DATE  : OCT 28 2010        PLANTS/m2 :  7.0     ROW SPACING :  15.cm  
 WEATHER        : UYTA1001                                                      
 SOIL           : UYSS0N2002     TEXTURE : -99   -  N20-02    SNIA CLAY RISS    
 SOIL INITIAL C : DEPTH:125cm EXTR. H2O:154.7mm  NO3: 28.7kg/ha  NH4: 24.1kg/ha 
 WATER BALANCE  : AUTOMATIC IRRIGATION - REFILL PROFILE                         
 IRRIGATION     : AUTOMATIC - PLANTING -> MATURITY [ SOIL DEPTH: 0.30m 50.%]    
 NITROGEN BAL.  : SOIL-N, N-UPTAKE & DYNAMIC N-FIXATION SIMULATION              
 N-FERTILIZER   :      122 kg/ha IN     3 APPLICATIONS                          
 RESIDUE/MANURE : INITIAL :     0 kg/ha ;       0 kg/ha IN     0 APPLICATIONS   
 ENVIRONM. OPT. : DAYL=    0.00  SRAD=    0.00  TMAX=    0.00  TMIN=    0.00    
                  RAIN=    0.00  CO2 =    0.00  DEW =    0.00  WIND=    0.00    
 SIMULATION OPT : WATER   :Y  NITROGEN:Y  N-FIX:Y  PHOSPH :N  PESTS  :N         
                  PHOTO   :C  ET      :R  INFIL:S  HYDROL :R  SOM    :G         
                  CO2 390ppm  NSWIT   :1  EVAP :S  SOIL   :2  STEMP  :D         
 MANAGEMENT OPT : PLANTING:R  IRRIG   :A  FERT :D  RESIDUE:N  HARVEST:M         
                  WEATHER :M  TILLAGE :N                                        
                                                                                
*SUMMARY OF SOIL AND GENETIC INPUT PARAMETERS                                   
                                                                                
   SOIL LOWER UPPER   SAT  EXTR  INIT   ROOT   BULK     pH    NO3    NH4    ORG 
  DEPTH LIMIT LIMIT    SW    SW    SW   DIST   DENS                          C  
   cm   cm3/cm3    cm3/cm3    cm3/cm3         g/cm3         ugN/g  ugN/g     %  
------------------------------------------------------------------------------- 
  0-  5 0.215 0.440 0.484 0.225 0.282   1.00   1.05   0.40   5.00   1.50   4.64 
  5- 15 0.215 0.440 0.484 0.225 0.282   1.00   1.05   0.40   5.00   1.50   4.64 
 15- 30 0.215 0.440 0.484 0.225 0.282   1.00   1.05   0.40   5.00   1.50   4.64 
 30- 41 0.219 0.365 0.457 0.146 0.262   0.40   1.22   6.80   4.60   1.50   2.74 
 41- 53 0.219 0.365 0.457 0.146 0.262   0.40   1.22   6.80   4.60   1.50   2.74 
 53- 63 0.215 0.287 0.429 0.072 0.287   0.10   1.38   7.30   0.00   1.50   1.07 
 63- 74 0.215 0.287 0.429 0.072 0.287   0.10   1.38   7.30   0.00   1.50   1.07 
 74- 84 0.215 0.287 0.429 0.072 0.287   0.10   1.38   7.30   0.00   1.50   1.07 
 84-110 0.214 0.275 0.424 0.061 0.275   0.10   1.41   7.80   0.00   1.50   0.71 
110-125 0.209 0.312 0.438 0.103 0.312   0.00   1.44   8.00   0.00   1.50   0.35 
                                                                                
TOT-125  26.9  42.3  55.9  15.5  35.2  <--cm   -  kg/ha-->   28.7   24.1 302408 
SOIL ALBEDO    : 0.12      EVAPORATION LIMIT :10.00         MIN. FACTOR  : 1.00 
RUNOFF CURVE # : 0.75      DRAINAGE RATE     : 0.25         FERT. FACTOR : 1.00 
                                                                                
 Soybean    CULTIVAR :UY0141-GM 4 URUGUAY       ECOTYPE :INDETE                 
 CSDVAR :13.39  PPSEN  : 0.29  EMG-FLW:20.80  FLW-FSD:18.00  FSD-PHM : 36.00    
 WTPSD  :0.200  SDPDVR : 1.70  SDFDUR :26.00  PODDUR :10.00  XFRUIT  :  1.00    
 THRESH : 77.0  SDPRO  :0.405  SDLIP   : 0.205                                  


   PLANT COMPONENT  HARVEST     LOST*   TOTAL  BALANCE
   ---------------  -------- kg[N]/ha -------  -------
   Leaf N              1.17    24.04    25.21
   Stem N              7.58     4.06    11.63
   Shell N            20.34    24.63    44.97
   Seed N            278.89     0.00   278.89
   Root N              5.92     8.10    14.01
   Nodule N            2.67     4.63     7.31
   Total N           316.56    65.46   382.02
   N leakage                            12.62
   TOTAL N                                      394.64


   N INPUTS TO SYSTEM                kg[N]/ha
   ------------------                --------
   Seed N At Planting                    0.68
   N2 Fixed                            128.81
   N Uptake from Soil                  265.17
   TOTAL N                                      394.66

   * Lost due to senescence, freeze, pest or disease damage.

*******************************************************************************
