<<<<<<< HEAD
*PLANT C OUTPUT FILE

*DSSAT Cropping System Model Ver. 4.6.1.000 -release      NOV 14, 2016; 11:44:03
                                                                                
*RUN   1        : UYSB                      CRGRO046 UYSB1056    1              
 MODEL          : CRGRO046 - Soybean                                            
 EXPERIMENT     : UYSB1056 SN late to create DSS                                
 DATA PATH      :                                                               
 TREATMENT  1   : UYSB                      CRGRO046                            
  
@YEAR DOY   DAS   DAP   TWAD    PHAD    CMAD    CGRD    GRAD    MRAD    CHAD   CL%D   CS%D   TGNN   TGAV    GN%D    GL%D    GC%D
 1990 319     4     0      0  0.0000  0.0000  0.0000  0.0000  0.0000 0.00000  0.000  0.000 22.378 20.265  0.0000  0.0000  0.0000
 1990 320     5     1      0  0.0000  0.0000  0.0000  0.0000  0.0000 0.00000  0.000  0.000 20.724 17.178  0.0000  0.0000  0.0000
 1990 321     6     2      0  0.0000  0.0000  0.0000  0.0000  0.0000 0.00000  0.000  0.000 23.771 17.753  0.0000  0.0000  0.0000
 1990 322     7     3      0  0.0000  0.0000  0.0000  0.0000  0.0000 0.00000  0.000  0.000 27.874 23.145  0.0000  0.0000  0.0000
 1990 323     8     4      0  0.0000  0.0000  0.0000  0.0000  0.0000 0.00000  0.000  0.000 31.799 27.643  0.0000  0.0000  0.0000
 1990 324     9     5      8  0.0000  0.0007  0.0004  0.0002  0.0000 0.00000  3.923  7.839 27.050 24.578  0.0000  0.0000  0.0000
 1990 325    10     6      9  0.1930  0.0006  0.1192  0.0406  0.0166 0.00000  3.866  7.738 27.340 23.793  0.0000  0.0000  0.0000
 1990 326    11     7     10  0.2154  0.0006  0.1359  0.0456  0.0161 0.00000  3.821  7.672 26.259 21.708  0.0000  0.0000  0.0000
 1990 327    12     8     12  0.2484  0.0007  0.1579  0.0516  0.0181 0.00000  3.782  7.623 26.284 21.268  0.0000  0.0000  0.0000
 1990 328    13     9     13  0.2566  0.0009  0.1620  0.0520  0.0215 0.00000  3.737  7.566 27.075 22.810  0.0000  0.0000  0.0000
 1990 329    14    10     15  0.2491  0.0010  0.1561  0.0498  0.0234 0.00000  3.690  7.501 27.701 23.759  0.0000  0.0000  0.0000
 1990 330    15    11     16  0.2942  0.0009  0.1911  0.0587  0.0206 0.00000  3.658  7.480 23.662 20.401  0.0000  0.0000  0.0000
 1990 331    16    12     18  0.2655  0.0007  0.1743  0.0545  0.0132 0.00000  3.645  7.477 19.679 15.665  0.0000  0.0000  0.0000
 1990 332    17    13     20  0.3293  0.0008  0.2165  0.0651  0.0183 0.00000  3.628  7.475 22.485 16.894  0.0000  0.0000  0.0000
 1990 333    18    14     23  0.4034  0.0012  0.2479  0.0906  0.0278 0.00000  3.639  7.432 25.083 19.743  0.0000  0.0000  0.0000
 1990 334    19    15     24  0.3145  0.0014  0.1898  0.0699  0.0265 0.00000  3.627  7.365 25.192 20.927  0.0000  0.0000  0.0000
 1990 335    20    16     27  0.4849  0.0015  0.3005  0.1059  0.0352 0.00000  3.623  7.344 24.821 20.628  0.0000  0.0000  0.0000
 1990 336    21    17     29  0.2677  0.0015  0.1644  0.0587  0.0217 0.00000  3.602  7.294 22.233 18.864  0.0000  0.0000  0.0000
 1990 337    22    18     32  0.5816  0.0013  0.3705  0.1307  0.0312 0.00000  3.608  7.325 21.353 17.230  0.0000  0.0000  0.0000
 1990 338    23    19     37  0.7481  0.0018  0.4695  0.1657  0.0488 0.00000  3.613  7.347 25.575 19.374  0.0000  0.0000  0.0000
 1990 339    24    20     40  0.6275  0.0031  0.3657  0.1376  0.0738 0.00000  3.591  7.279 30.689 26.388  0.0000  0.0000  0.0000
 1990 340    25    21     45  0.7448  0.0027  0.4814  0.1528  0.0591 0.00000  3.605  7.278 24.514 21.611  0.0000  0.0000  0.0000
 1990 341    26    22     52  1.0921  0.0000  0.7115  0.1785  0.0743 0.03749  5.289  8.661 23.968 20.670  0.0000  0.0000  0.0000
 1990 342    27    23     59  1.1469  0.0033  0.7424  0.2376  0.0686 0.00000  5.113  8.450 23.261 18.601  0.0000  0.0000  0.0000
 1990 343    28    24     61  0.4728  0.0032  0.1705  0.1452  0.0351 0.00000  4.932  8.342 18.965 16.994  0.0000  0.0000  0.0000
 1990 344    29    25     64  0.5312  0.0035  0.3357  0.1178  0.0403 0.00000  4.828  8.226 19.019 17.729  0.0000  0.0000  0.0000
 1990 345    30    26     72  1.4316  0.0044  0.8465  0.3211  0.0941 0.00000  4.659  8.087 23.626 19.934  0.0000  0.0000  0.0000
 1990 346    31    27     78  0.9172  0.0035  0.5625  0.2037  0.0534 0.00000  4.560  8.001 20.467 16.345  0.0000  0.0000  0.0000
 1990 347    32    28     87  1.4198  0.0049  0.8882  0.2957  0.0932 0.00000  4.455  7.906 22.707 19.231  0.0000  0.0000  0.0000
 1990 348    33    29     96  1.5787  0.0041  1.0034  0.3348  0.0793 0.00000  4.371  7.848 20.355 16.198  0.0000  0.0000  0.0000
 1990 349    34    30    111  2.3092  0.0061  1.4525  0.4876  0.1464 0.00000  4.276  7.785 25.117 19.241  0.0000  0.0000  0.0000
 1990 350    35    31    126  2.4971  0.0085  1.5401  0.5264  0.2020 0.00000  4.184  7.710 28.004 22.092  0.0000  0.0000  0.0000
 1990 351    36    32    136  1.8812  0.0109  1.1366  0.3879  0.1978 0.00000  4.100  7.613 28.491 24.155  0.0000  0.0000  0.0000
 1990 352    37    33    154  3.0346  0.0102  1.9462  0.6121  0.2259 0.00000  4.064  7.576 24.496 21.522  0.0000  0.0000  0.0000
 1990 353    38    34    174  3.4361  0.0105  2.0554  0.8117  0.2302 0.00000  4.002  7.531 24.111 20.098  0.0000  0.0000  0.0000
 1990 354    39    35    198  4.0757  0.0123  2.4698  0.9382  0.2855 0.00000  3.950  7.493 25.358 20.665  0.0000  0.0000  0.0000
 1990 355    40    36    223  4.3165  0.0161  2.5793  0.9696  0.3711 0.00000  3.898  7.439 27.952 22.972  0.0000  0.0000  0.0000
 1990 356    41    37    237  2.7440  0.0178  1.7037  0.5809  0.2679 0.00000  3.879  7.359 24.809 22.409  0.0000  0.0000  0.0000
 1990 357    42    38    264  4.9447  0.0196  2.8377  1.1478  0.4308 0.00000  3.828  7.315 26.991 23.193  0.0000  0.0000  0.0000
 1990 358    43    39    287  4.2098  0.0176  2.6591  0.9081  0.3086 0.00000  3.823  7.282 23.216 20.028  0.0000  0.0000  0.0000
 1990 359    44    40    333  7.4902  0.0180  4.6407  1.6810  0.4556 0.00000  3.816  7.304 23.971 19.313  0.0000  0.0000  0.0000
 1990 360    45    41    385  9.1360  0.0270  5.3567  2.0438  0.7739 0.00000  3.781  7.300 29.171 23.438  0.0000  0.0000  0.0000
 1990 361    46    42    446 10.4466  0.0341  6.1936  2.2720  0.9709 0.00000  3.750  7.287 29.703 24.866  0.0000  0.0000  0.0000
 1990 362    47    43    502  9.2280  0.0237  5.7131  2.1233  0.4794 0.01421  3.763  7.369 19.974 17.215  0.0000  0.0000  0.0000
 1990 363    48    44    563  9.8988  0.0251  6.1220  2.3308  0.5079 0.03678  3.803  7.526 21.448 16.467  0.0000  0.0000  0.0000
 1990 364    49    45    646 13.6841  0.0377  8.3015  3.2185  0.8737 0.08744  3.883  7.809 25.093 19.431  0.0000  0.0000  0.0000
 1990 365    50    46    737 15.5279  0.0540  9.2106  3.5865  1.2320 0.14636  3.986  8.164 27.452 22.220  0.0000  0.0000  0.0000
 1991 001    51    47    825 15.2502  0.0710  8.8007  3.4537  1.4893 0.19116  4.087  8.520 29.664 24.467  0.0000  0.0000  0.0000
 1991 002    52    48    921 16.7017  0.0870  9.5483  3.7750  1.6463 0.26889  4.213  8.945 28.010 24.821  0.0000  0.0000  0.0000
 1991 003    53    49   1033 19.2533  0.0927 11.2140  4.3181  1.7038 0.38394  4.390  9.484 27.535 23.341  0.0000  0.0000  0.0000
 1991 004    54    50   1163 22.4010  0.0950 13.3257  4.9287  1.6849 0.52818  4.636 10.125 26.564 21.116  0.0000  0.0000  0.0000
 1991 005    55    51   1305 23.9111  0.1139 14.3693  5.1428  1.8162 0.64430  4.869 10.759 26.269 21.108  0.0000  0.0000  0.0000
 1991 006    56    52   1459 25.4575  0.1376 15.5246  5.2571  2.1011 0.78225  5.107 11.393 27.891 21.726  0.0000  0.0000  0.0000
 1991 007    57    53   1610 26.3298  0.1891 14.7710  5.7108  2.7690 0.84816  5.276 11.925 30.344 24.860  0.0000  0.0000  0.0000
 1991 008    58    54   1756 28.0314  0.2341 13.6697  6.6270  3.4226 0.87644  5.378 12.355 32.282 26.905  0.0000  0.0000  0.0000
 1991 009    59    55   1818 14.8696  0.2311  7.1076  3.6155  1.7686 0.50475  5.459 12.527 23.896 22.820  0.0000  0.0000  0.0000
 1991 010    60    56   1975 29.4779  0.2677 16.6206  5.9794  3.2110 1.32207  5.758 13.210 29.235 25.077  0.0000  0.0000  0.0000
 1991 011    61    57   2143 29.0841  0.2625 16.6399  5.9714  2.5983 1.42527  5.999 13.851 26.192 21.927  0.0000  0.0000  0.0000
 1991 012    62    58   2339 32.5241  0.2560 19.2800  6.5721  2.4363 1.69105  6.271 14.550 24.586 19.783  0.0000  0.0000  0.0000
 1991 013    63    59   2493 26.8915  0.2990 15.3499  5.4883  2.3083 1.44793  6.457 15.031 25.088 20.035  0.0000  0.0000  0.0000
 1991 014    64    60   2708 34.8403  0.3637 21.1572  5.9284  3.0650 2.18087  6.747 15.765 26.180 21.378  0.0000  0.0000  0.0000
 1991 015    65    61   2922 35.4743  0.0000 20.6809  5.7807  3.7169 2.34611  7.128 16.704 29.306 22.998  0.0000  0.0000  0.0000
 1991 016    66    62   3074 26.4824  0.3555 15.2781  5.4774  2.0270 1.58669  7.270 17.052 21.205 17.801  0.0000  0.0000  0.0000
 1991 017    67    63   3252 30.1609  0.3129 17.1021  6.2710  1.9796 1.88129  7.436 17.481 22.038 15.838  0.0000  0.0000  0.0000
 1991 018    68    64   3489 37.7554  0.4778 23.2061  6.6193  3.1298 2.62245  7.661 18.031 25.415 19.431  0.0000  0.0000  0.0000
 1991 019    69    65   3709 36.7802  0.5765 21.9019  6.7116  3.5792 2.46930  7.840 18.453 27.160 20.781  0.0000  0.0000  0.0000
 1991 020    70    66   3890 33.2507  0.6526 18.5382  6.1962  3.9163 2.13058  7.970 18.745 29.370 21.989  0.0000  0.0000  0.0000
 1991 021    71    67   3993 21.1325  0.7090 12.3100  3.7656  2.8976 1.19406  8.017 18.796 23.357 21.422  0.0000  0.0000  0.0000
 1991 022    72    68   4211 39.7152  0.7659 22.2332  7.4202  4.3225 2.65142  8.185 19.179 27.051 22.250  0.0000  0.0000  0.0000
 1991 023    73    69   4404 36.6513  0.8647 20.2164  6.5351  4.5125 2.41733  8.320 19.467 27.499 23.092  0.0000  0.0000  0.0000
 1991 024    74    70   4477 18.3619  0.8301 10.3085  3.4611  2.9845 0.57865  8.301 19.349 23.207 21.416  0.0000  0.0000  0.0000
 1991 025    75    71   4693 38.2194  0.8518 22.2987  6.8538  4.2130 2.52036  8.453 19.682 25.224 21.678  0.0000  0.0000  0.0000
 1991 026    76    72   4906 39.2763  0.8113 21.8288  7.5563  3.9226 2.58022  8.608 20.029 24.659 20.182  0.0000  0.0000  0.0000
 1991 027    77    73   5126 38.9203  0.7884 22.5063  7.2758  3.6492 2.41719  8.749 20.343 23.699 19.079  0.0000  0.0000  0.0000
 1991 028    78    74   5336 40.1991  0.9769 22.0216  7.6485  4.6120 2.48706  8.876 20.611 26.686 21.279  0.0000  0.0000  0.0000
 1991 029    79    75   5446 25.9939  0.9874 14.0910  5.3075  3.6306 0.50343  8.852 20.469 23.923 20.664  0.0000  0.0000  0.0000
 1991 030    80    76   5606 33.7295  0.9576 18.9759  6.6189  3.6332 1.52673  8.923 20.565 21.857 19.458  0.0000  0.0000  0.0000
 1991 031    81    77   5708 28.2050  1.0723 15.5723  5.8099  3.6808 0.49525  8.902 20.416 22.641 20.206  6.1773 19.6049 33.2869
 1991 032    82    78   5869 40.2134  1.1949 21.5493  8.0274  4.8542 1.81227  8.971 20.524 25.975 21.357  6.1944 19.9903 32.7950
 1991 033    83    79   6015 38.9969  1.2923 19.9215  8.0660  5.2752 1.50256  9.013 20.549 27.916 22.153  6.2192 20.2077 32.4222
 1991 034    84    80   6146 38.5760  1.5066 19.4562  7.7914  6.4198 1.11790  9.006 20.444 30.166 24.797  6.3252 20.3480 31.6195
 1991 035    85    81   6272 39.5816  1.5600 19.8684  8.1858  6.4658 1.03944  8.989 20.316 29.617 24.642  6.3649 20.4076 31.3117
 1991 036    86    82   6410 39.3612  1.6213 20.0859  8.4150  6.3568 0.61488  8.932 20.081 28.412 24.440  6.3805 20.4407 31.1813
 1991 037    87    83   6493 32.9516  1.5972 17.5004  7.0482  5.4809 0.00000  8.826 19.711 26.651 23.288  6.3589 20.4555 31.3016
 1991 038    88    84   6613 38.8757  1.5372 19.7732  8.9584  5.6798 0.00000  8.724 19.354 27.371 22.577  6.3294 20.4431 31.4984
 1991 039    89    85   6709 33.9510  1.6228 17.5936  7.5446  5.8153 0.00000  8.614 18.976 27.853 23.525  6.3289 20.4578 31.4863
 1991 040    90    86   6787 30.9507  1.6692 15.8308  6.8512  5.8661 0.00000  8.500 18.585 27.992 24.023  6.3391 20.4679 31.4128
 1991 041    91    87   6896 37.3263  1.5982 18.5194  8.6311  6.2353 0.00000  8.394 18.209 29.190 23.504  6.3364 20.4742 31.4234
 1991 042    92    88   6947 33.3278  1.7420 16.9292  7.4710  6.5282 0.00000  8.274 17.796 28.401 24.969  6.3594 20.4792 31.2743
 1991 043    93    89   7057 35.7092  1.4620 18.6442  8.7193  4.9245 0.00000  8.180 17.448 24.240 20.916  6.3235 20.3658 31.6124
 1991 044    94    90   7145 29.4069  1.2004 15.7454  7.6550  3.4409 0.00000  8.110 17.164 22.202 17.092  6.3160 19.8513 32.1739
 1991 045    95    91   7227 25.9878  1.1069 14.2500  7.0925  2.8111 0.00000  8.050 16.902 19.425 15.602  6.3303 19.2009 32.7350
 1991 046    96    92   7313 27.4720  1.1166 15.0582  7.3946  3.0221 0.00000  7.991 16.637 21.197 15.623  6.3404 18.7277 33.1446
 1991 047    97    93   7431 32.8239  1.2241 17.2641  8.5767  3.9029 0.00000  7.922 16.341 24.393 17.141  6.3320 18.5462 33.3785
 1991 048    98    94   7496 35.0636  1.4992 17.7605  8.6024  5.8433 0.00000  7.827 15.974 28.676 21.890  6.3173 18.7734 33.2435
 1991 049    99    95   7566 32.0845  1.5323 16.3233  8.2079  5.7052 0.00000  7.725 15.590 27.382 22.312  6.3066 18.9983 33.0851
 1991 050   100    96   7633 32.9534  1.4295 16.5855  8.4178  5.5411 0.00000  7.630 15.225 28.071 21.324  6.2933 19.1331 33.0338
 1991 051   101    97   7668 27.3188  1.3779 13.7883  6.6380  6.4678 0.05571  7.553 14.891 29.902 24.442  6.3225 19.2485 32.7362
 1991 052   102    98   7649 14.9791  1.5162  8.9841  2.6331  5.1032 0.00000  7.443 14.482 26.714 23.431  6.3223 19.3315 32.6542
 1991 053   103    99   7716 28.9540  1.1868 14.9493  7.3499  5.2710 0.05666  7.377 14.181 26.568 21.538  6.3248 19.3852 32.5847
 1991 054   104   100   7792 27.9080  0.8213 14.6975  7.9818  3.7649 0.10187  7.359 13.999 22.521 17.635  6.3407 19.1932 32.6772
 1991 055   105   101   7879 31.2685  0.9748 15.3870  8.3147  5.5292 0.10658  7.322 13.769 27.317 21.505  6.3513 19.2295 32.5751
 1991 056   106   102   7966 30.5491  1.0236 14.3619  7.7481  6.6848 0.10105  7.270 13.515 31.036 23.657  6.3698 19.2832 32.4054
 1991 057   107   103   8034 29.1940  1.0584 13.1027  7.0334  7.7378 0.10660  7.208 13.246 32.924 26.010  6.3952 19.3308 32.1991
 1991 058   108   104   8068 20.5334  1.3738  9.5368  4.1364  7.5403 0.02609  7.076 12.833 32.260 27.307  6.4114 19.3729 32.0556
 1991 059   109   105   8084 14.6610  1.3073  7.9115  2.8779  4.9606 0.00000  6.936 12.420 24.351 22.855  6.4067 19.4108 32.0475
 1991 060   110   106   8119 17.7990  1.2788  8.8594  3.8469  5.6183 0.01289  6.793 12.012 26.790 24.013  6.4074 19.4478 32.0061
 1991 061   111   107   8152 16.2824  1.1707  8.1635  3.5442  4.9821 0.01912  6.657 11.636 25.967 22.692  6.4055 19.4749 31.9905
 1991 062   112   108   8215 24.7136  0.9796 10.8837  6.0567  6.4821 0.07729  6.556 11.344 30.506 24.598  6.4177 19.4954 31.8939
 1991 063   113   109   8269 20.4860  0.9821  9.5729  5.1022  5.0051 0.05570  6.441 11.036 25.953 22.217  6.4190 19.5100 31.8709
 1991 064   114   110   8339 22.9163  0.7579 10.5688  6.2228  4.4290 0.09416  6.365 10.820 25.628 20.044  6.4226 19.4837 31.8751
 1991 065   115   111   8402 22.1982  0.9221 10.0983  5.8346  4.9542 0.05772  6.245 10.524 26.377 21.826  6.4229 19.4953 31.8616
 1991 066   116   112   8455 20.6165  0.8738  8.8497  5.0609  5.5185 0.06626  6.129 10.245 30.042 22.969  6.4272 19.5071 31.8229
 1991 067   117   113   8495 19.8688  1.0076  7.7292  4.4197  7.2170 0.04974  5.978  9.904 33.067 27.418  6.4385 19.5225 31.7370
 1991 068   118   114   8500 10.6299  1.0735  4.8242  2.0034  4.5480 0.00000  5.795  9.509 25.089 23.064  6.4361 19.5375 31.7366
 1991 069   119   115   8501  9.3903  1.0242  4.2185  1.6745  4.2932 0.00000  5.614  9.126 24.669 22.610  6.4337 19.5496 31.7396
 1991 070   120   116   8530 14.2891  0.9037  6.0801  3.2847  4.6559 0.02847  5.456  8.798 25.695 22.820  6.4340 19.5599 31.7274
 1991 071   121   117   8568 15.4537  0.8496  6.7895  2.4782  5.0551 0.03817  5.305  8.491 27.656 23.611  6.3768 19.6934 31.9513
 1991 072   122   118   8328 13.0957  0.8763  5.9185  2.4169  4.0773 0.00000  5.074  7.616 25.721 21.181  6.3379 19.7732 32.1149
 1991 073   123   119   8136 11.2788  0.7478  4.8904  1.8374  4.0447 0.00000  4.845  6.852 25.823 21.958  6.3018 19.8517 32.2621
 1991 074   124   120   7986  9.7568  0.5952  4.1821  1.8253  3.3248 0.00000  4.637  6.210 25.228 19.876  6.2780 19.8922 32.3701
 1991 075   125   121   7846  6.6542  0.5532  2.2500  0.9388  3.8613 0.00000  4.420  5.636 27.396 22.862  6.2780 19.8959 32.3664
 1991 076   126   122   7721  3.8794  0.4799  0.6837  0.1961  3.5021 0.00000  4.204  5.141 26.032 22.668  6.2780 19.8970 32.3655
 1991 077   127   123   7628  4.5936  0.4036  1.4465  0.4659  3.0808 0.00000  4.013  4.722 24.844 21.092  6.2776 19.8975 32.3674
 1991 078   128   124   7544  3.0989  0.3672  0.0287  0.0082  3.4301 0.00000  3.815  4.354 28.572 22.557  6.2776 19.8975 32.3673
 1991 079   129   125   7474  2.5821  0.3314  0.0000  0.0000  3.3388 0.00000  3.626  4.032 28.294 22.565  6.2776 19.8975 32.3673
 1991 080   130   126   7416  2.1963  0.3066  0.0000  0.0000  3.4789 0.00000  3.442  3.746 28.901 23.421  6.2776 19.8975 32.3673
 1991 081   131   127   7368  1.8049  0.2796  0.0000  0.0000  3.3017 0.00000  3.268  3.494 28.026 23.043  6.2776 19.8975 32.3673
 1991 082   132   128   7327  1.4425  0.2648  0.0000  0.0000  3.8315 0.00000  3.097  3.265 31.060 25.127  6.2776 19.8975 32.3673
 1991 083   133   129   7291  1.1055  0.2494  0.0000  0.0000  4.0859 0.00000  2.932  3.057 32.232 26.268  6.2776 19.8975 32.3673

*DSSAT Cropping System Model Ver. 4.6.1.000 -release      NOV 14, 2016; 11:44:03
                                                                                
*RUN   2        : UYSB                      CRGRO046 UYSB1056    1              
 MODEL          : CRGRO046 - Soybean                                            
 EXPERIMENT     : UYSB1056 SN late to create DSS                                
 DATA PATH      :                                                               
 TREATMENT  1   : UYSB                      CRGRO046                            
  
@YEAR DOY   DAS   DAP   TWAD    PHAD    CMAD    CGRD    GRAD    MRAD    CHAD   CL%D   CS%D   TGNN   TGAV    GN%D    GL%D    GC%D
 1991 319     4     0      0  0.0000  0.0000  0.0000  0.0000  0.0000 0.00000  0.000  0.000 21.058 18.121  0.0000  0.0000  0.0000
 1991 320     5     1      0  0.0000  0.0000  0.0000  0.0000  0.0000 0.00000  0.000  0.000 21.658 17.682  0.0000  0.0000  0.0000
 1991 321     6     2      0  0.0000  0.0000  0.0000  0.0000  0.0000 0.00000  0.000  0.000 21.378 17.187  0.0000  0.0000  0.0000
 1991 322     7     3      0  0.0000  0.0000  0.0000  0.0000  0.0000 0.00000  0.000  0.000 25.105 20.197  0.0000  0.0000  0.0000
 1991 323     8     4      0  0.0000  0.0000  0.0000  0.0000  0.0000 0.00000  0.000  0.000 20.265 17.578  0.0000  0.0000  0.0000
 1991 324     9     5      0  0.0000  0.0000  0.0000  0.0000  0.0000 0.00000  0.000  0.000 22.830 18.746  0.0000  0.0000  0.0000
 1991 325    10     6      0  0.0000  0.0000  0.0000  0.0000  0.0000 0.00000  0.000  0.000 26.388 20.619  0.0000  0.0000  0.0000
 1991 326    11     7      8  0.0000  0.0006  0.0004  0.0002  0.0000 0.00000  3.932  7.859 30.627 23.639  0.0000  0.0000  0.0000
 1991 327    12     8      9  0.1754  0.0007  0.1078  0.0361  0.0198 0.00000  3.884  7.741 32.915 26.931  0.0000  0.0000  0.0000
 1991 328    13     9      9  0.0733  0.0004  0.0430  0.0178  0.0050 0.00000  3.844  7.674 18.376 16.477  0.0000  0.0000  0.0000
 1991 329    14    10      9  0.0781  0.0004  0.0482  0.0180  0.0053 0.00000  3.811  7.614 18.173 16.524  0.0000  0.0000  0.0000
 1991 330    15    11     10  0.1236  0.0004  0.0790  0.0273  0.0070 0.00000  3.784  7.576 19.166 16.442  0.0000  0.0000  0.0000
 1991 331    16    12     11  0.2082  0.0005  0.1351  0.0437  0.0116 0.00000  3.757  7.563 22.367 17.528  0.0000  0.0000  0.0000
 1991 332    17    13     13  0.2547  0.0008  0.1618  0.0509  0.0203 0.00000  3.717  7.526 27.088 22.035  0.0000  0.0000  0.0000
 1991 333    18    14     14  0.2283  0.0009  0.1453  0.0449  0.0194 0.00000  3.671  7.475 24.707 22.341  0.0000  0.0000  0.0000
 1991 334    19    15     17  0.3497  0.0011  0.2233  0.0677  0.0286 0.00000  3.634  7.456 26.754 22.919  0.0000  0.0000  0.0000
 1991 335    20    16     19  0.3436  0.0011  0.2214  0.0657  0.0262 0.00000  3.602  7.437 26.019 21.287  0.0000  0.0000  0.0000
 1991 336    21    17     21  0.4029  0.0013  0.2391  0.0921  0.0341 0.00000  3.621  7.374 28.052 22.604  0.0000  0.0000  0.0000
 1991 337    22    18     23  0.3439  0.0015  0.2069  0.0743  0.0313 0.00000  3.606  7.312 26.222 22.816  0.0000  0.0000  0.0000
 1991 338    23    19     26  0.5865  0.0017  0.3564  0.1262  0.0522 0.00000  3.605  7.308 29.430 23.910  0.0000  0.0000  0.0000
 1991 339    24    20     29  0.4572  0.0019  0.2813  0.0976  0.0410 0.00000  3.581  7.282 26.092 22.866  0.0000  0.0000  0.0000
 1991 340    25    21     34  0.7692  0.0023  0.4581  0.1706  0.0747 0.00000  3.589  7.276 30.071 25.446  0.0000  0.0000  0.0000
 1991 341    26    22     37  0.6793  0.0025  0.4132  0.1458  0.0606 0.00000  3.575  7.265 26.621 23.467  0.0000  0.0000  0.0000
 1991 342    27    23     44  1.0461  0.0028  0.6432  0.2190  0.0891 0.00000  3.573  7.307 28.181 23.844  0.0000  0.0000  0.0000
 1991 343    28    24     47  0.5533  0.0028  0.3435  0.1164  0.0469 0.00000  3.545  7.278 22.279 20.881  0.0000  0.0000  0.0000
 1991 344    29    25     54  1.2285  0.0034  0.7906  0.2485  0.0981 0.00000  3.585  7.303 25.905 22.966  0.0000  0.0000  0.0000
 1991 345    30    26     62  1.2461  0.0039  0.7402  0.2721  0.1005 0.00000  3.571  7.308 26.226 22.534  0.0000  0.0000  0.0000
 1991 346    31    27     67  0.8212  0.0038  0.5030  0.1727  0.0652 0.00000  3.550  7.283 22.840 20.260  0.0000  0.0000  0.0000
 1991 347    32    28     78  1.9552  0.0046  1.2389  0.3978  0.1425 0.00000  3.583  7.344 26.628 21.862  0.0000  0.0000  0.0000
 1991 348    33    29     84  0.9260  0.0046  0.5859  0.1904  0.0709 0.00000  3.569  7.314 21.207 19.344  0.0000  0.0000  0.0000
 1991 349    34    30     90  1.0487  0.0052  0.6239  0.2284  0.0846 0.00000  3.545  7.278 22.595 20.158  0.0000  0.0000  0.0000
 1991 350    35    31    102  2.1098  0.0064  1.3330  0.4215  0.1628 0.00000  3.568  7.304 25.596 22.085  0.0000  0.0000  0.0000
 1991 351    36    32    120  2.7458  0.0079  1.8036  0.5195  0.2188 0.00000  3.593  7.341 26.483 22.936  0.0000  0.0000  0.0000
 1991 352    37    33    136  2.9679  0.0100  1.6802  0.6226  0.2759 0.00000  3.549  7.340 29.331 24.566  0.0000  0.0000  0.0000
 1991 353    38    34    154  2.9629  0.0114  1.8951  0.5925  0.2842 0.00000  3.594  7.299 29.379 24.470  0.0000  0.0000  0.0000
 1991 354    39    35    177  4.0202  0.0000  2.5214  0.7293  0.3694 0.04149  4.106  7.766 29.272 24.614  0.0000  0.0000  0.0000
 1991 355    40    36    201  4.3271  0.0171  2.3248  0.9615  0.4530 0.00000  3.966  7.657 30.738 26.260  0.0000  0.0000  0.0000
 1991 356    41    37    217  3.1223  0.0178  1.5050  0.7515  0.3091 0.00000  3.855  7.550 26.196 23.760  0.0000  0.0000  0.0000
 1991 357    42    38    252  5.7099  0.0000  3.2191  0.9051  0.5271 0.55318  7.533 10.724 28.604 24.842  0.0000  0.0000  0.0000
 1991 358    43    39    292  6.9532  0.0353  4.2187  1.4218  0.6775 0.00000  6.910 10.113 29.444 25.789  0.0000  0.0000  0.0000
 1991 359    44    40    327  7.0328  0.0313  3.2579  1.7985  0.5139 0.00593  6.384  9.754 24.509 21.571  0.0000  0.0000  0.0000
 1991 360    45    41    369  7.1825  0.0259  4.1150  1.6688  0.4028 0.02415  6.054  9.576 21.463 18.130  0.0000  0.0000  0.0000
 1991 361    46    42    425  9.6562  0.0306  5.7677  2.1426  0.5658 0.05902  5.816  9.547 23.496 18.910  0.0000  0.0000  0.0000
 1991 362    47    43    493 11.3915  0.0408  6.8264  2.4833  0.7763 0.10446  5.655  9.662 25.042 20.849  0.0000  0.0000  0.0000
 1991 363    48    44    570 13.0867  0.0511  7.7704  2.8724  1.0015 0.16047  5.563  9.899 27.341 22.073  0.0000  0.0000  0.0000
 1991 364    49    45    643 12.8179  0.0666  7.4130  2.8584  1.1737 0.19717  5.523 10.168 28.667 24.008  0.0000  0.0000  0.0000
 1991 365    50    46    713 12.7190  0.0864  7.0929  2.7981  1.4970 0.23406  5.519 10.450 31.412 27.147  0.0000  0.0000  0.0000
 1992 001    51    47    763  9.3234  0.0900  5.1980  2.0928  1.0211 0.20545  5.526 10.657 26.972 24.212  0.0000  0.0000  0.0000
 1992 002    52    48    844 14.7089  0.0956  8.6102  3.1316  1.3815 0.39564  5.668 11.175 27.330 23.925  0.0000  0.0000  0.0000
 1992 003    53    49    945 17.0764  0.0769  9.6997  3.9421  1.0378 0.49353  5.784 11.764 21.996 18.770  0.0000  0.0000  0.0000
 1992 004    54    50   1071 21.6528  0.1064 12.1938  4.8213  1.5501 0.69066  5.942 12.444 25.206 20.941  0.0000  0.0000  0.0000
 1992 005    55    51   1201 22.8944  0.1275 12.7140  5.3075  1.7367 0.79317  6.121 13.085 26.782 21.118  0.0000  0.0000  0.0000
 1992 006    56    52   1310 19.8855  0.1551 10.8198  4.6103  1.6480 0.74183  6.257 13.561 25.656 21.534  0.0000  0.0000  0.0000
 1992 007    57    53   1440 23.3949  0.1877 13.4107  4.9288  2.1162 1.02264  6.489 14.184 27.759 22.848  0.0000  0.0000  0.0000
 1992 008    58    54   1585 25.6831  0.2480 14.3387  5.2201  2.8078 1.19890  6.679 14.778 29.533 25.626  0.0000  0.0000  0.0000
 1992 009    59    55   1724 24.8641  0.2836 13.9027  4.9459  2.8315 1.23722  6.855 15.301 29.518 25.575  0.0000  0.0000  0.0000
 1992 010    60    56   1859 24.3409  0.3236 13.7184  4.7266  2.8514 1.28496  7.026 15.777 28.772 25.510  0.0000  0.0000  0.0000
 1992 011    61    57   2052 30.7037  0.0000 17.8113  5.0874  2.4529 2.67072  7.668 17.517 25.365 21.028  0.0000  0.0000  0.0000
 1992 012    62    58   2232 29.4550  0.2104 17.5537  5.0815  2.5339 1.89382  7.929 18.188 26.337 21.140  0.0000  0.0000  0.0000
 1992 013    63    59   2424 32.5204  0.4069 18.9491  6.3558  2.9122 1.99495  8.112 18.657 26.319 21.875  0.0000  0.0000  0.0000
 1992 014    64    60   2586 28.6732  0.4516 16.0496  5.7591  2.7812 1.77526  8.244 18.997 26.302 21.822  0.0000  0.0000  0.0000
 1992 015    65    61   2722 23.1862  0.2768 13.1992  4.7895  1.4101 1.46893  8.364 19.313 18.867 15.355  0.0000  0.0000  0.0000
 1992 016    66    62   2881 27.0993  0.3272 15.2968  5.4977  1.7781 1.79340  8.504 19.680 21.424 16.227  0.0000  0.0000  0.0000
 1992 017    67    63   3093 34.5961  0.0000 19.9065  5.7157  2.9135 2.74471  8.861 20.557 25.411 19.928  0.0000  0.0000  0.0000
 1992 018    68    64   3303 34.7465  0.6244 20.7014  6.0256  3.5687 2.58712  9.022 20.945 27.988 21.932  0.0000  0.0000  0.0000
 1992 019    69    65   3469 30.9431  0.7458 17.1888  5.6839  3.8912 2.07677  9.119 21.148 29.116 23.669  0.0000  0.0000  0.0000
 1992 020    70    66   3671 35.7251  0.8540 20.5093  5.9725  4.9650 2.58181  9.246 21.433 31.198 25.716  0.0000  0.0000  0.0000
 1992 021    71    67   3843 33.6028  0.9199 18.0862  6.1600  4.5956 2.24395  9.342 21.620 28.885 24.944  0.0000  0.0000  0.0000
 1992 022    72    68   4026 34.8955  0.9219 19.0158  6.5052  4.4798 2.31447  9.446 21.828 28.317 23.946  0.0000  0.0000  0.0000
 1992 023    73    69   4213 35.2126  0.8761 19.4507  6.6683  3.9573 2.25623  9.551 22.043 26.313 21.942  0.0000  0.0000  0.0000
 1992 024    74    70   4357 29.3676  0.9115 15.9662  5.4895  3.8279 1.48652  9.603 22.108 26.289 22.384  0.0000  0.0000  0.0000
 1992 025    75    71   4468 25.6093  1.1097 13.9049  4.8682  4.2616 0.82009  9.577 21.958 27.230 24.472  0.0000  0.0000  0.0000
 1992 026    76    72   4618 32.9753  1.1738 17.5732  6.2311  4.9747 1.58413  9.617 21.976 27.988 24.872  0.0000  0.0000  0.0000
 1992 027    77    73   4734 31.4685  1.1862 16.8597  6.0448  4.6520 1.28097  9.633 21.934 27.229 23.970  6.3669 20.5000 31.2067
 1992 028    78    74   4818 28.0586  1.3100 14.4858  5.5558  5.0092 0.48330  9.567 21.673 28.726 25.467  6.4904 20.5000 30.4349
 1992 029    79    75   4900 26.7152  1.3440 13.9018  5.3436  4.9288 0.14629  9.466 21.323 28.205 25.412  6.4930 20.5000 30.4190
 1992 030    80    76   4931 18.1027  0.9005  9.4996  3.2128  4.3707 0.12996  9.436 21.131 28.001 25.459  6.4955 20.5000 30.4030
 1992 031    81    77   4992 27.5280  1.4200 13.4023  5.7556  5.4911 0.00000  9.310 20.717 29.744 26.558  6.5309 20.5000 30.1819
 1992 032    82    78   5080 28.4949  1.3918 14.5511  5.8792  5.4170 0.00000  9.187 20.310 29.585 26.005  6.5362 20.5000 30.1485
 1992 033    83    79   5186 31.8516  1.4567 15.9054  6.4458  6.0326 0.16567  9.074 19.931 29.679 26.851  6.5606 20.5000 29.9964
 1992 034    84    80   5237 23.4230  1.3590 12.4381  4.8106  4.5238 0.00000  8.955 19.534 26.446 24.299  6.5186 20.5000 30.2590
 1992 035    85    81   5319 29.1480  1.3405 14.3796  6.5442  4.8471 0.00000  8.837 19.140 26.930 23.995  6.4781 20.5000 30.5118
 1992 036    86    82   5405 30.8244  1.3980 15.1885  7.1044  5.3998 0.00000  8.713 18.726 28.012 25.042  6.4741 20.5000 30.5371
 1992 037    87    83   5492 31.2963  1.3772 15.3844  7.4685  5.3857 0.00000  8.592 18.317 28.137 24.738  6.4649 20.5000 30.5943
 1992 038    88    84   5586 31.7742  0.7979 16.0535  7.0229  5.9596 0.19016  8.593 18.182 29.817 25.881  6.4801 20.5000 30.4992
 1992 039    89    85   5666 30.2572  1.4535 14.2051  7.3789  6.4113 0.00000  8.464 17.745 31.424 27.024  6.5131 20.5000 30.2928
 1992 040    90    86   5702 19.2577  1.3022  9.8163  4.8017  4.6686 0.02480  8.363 17.365 27.740 24.629  6.5144 20.4617 30.3230
 1992 041    91    87   5720 15.2230  1.2591  8.6627  3.5243  3.7583 0.00000  8.268 16.983 24.728 22.583  6.4766 20.4547 30.5665
 1992 042    92    88   5764 20.2205  1.1106 10.7928  5.0838  4.0647 0.04028  8.207 16.664 25.080 22.577  6.4643 20.4035 30.6946
 1992 043    93    89   5861 30.2577  1.2505 15.8156  7.6533  4.8632 0.00000  8.117 16.270 25.930 23.071  6.4102 20.4682 30.9681
 1992 044    94    90   5902 18.8292  1.2673 10.0951  4.1115  4.7899 0.01096  8.023 15.868 27.965 24.713  6.4170 20.4626 30.9311
 1992 045    95    91   5921 13.6550  1.1547  8.1571  2.6581  3.5678 0.00097  7.937 15.490 23.608 21.929  6.4017 20.4469 31.0425
 1992 046    96    92   5989 27.3801  1.0468 13.3610  7.0200  5.5406 0.06590  7.883 15.178 28.609 25.000  6.4298 20.4087 30.9053
 1992 047    97    93   6054 28.4557  1.1881 13.7910  7.3785  5.8130 0.01691  7.785 14.777 29.270 25.341  6.4409 20.4082 30.8364
 1992 048    98    94   6128 28.2343  0.8943 13.3033  7.4687  5.6408 0.09531  7.748 14.518 28.569 24.891  6.4668 20.3649 30.7179
 1992 049    99    95   6207 28.0437  0.9026 12.7667  7.3003  6.2518 0.09419  7.701 14.246 30.636 26.172  6.4974 20.3290 30.5621
 1992 050   100    96   6276 26.8899  0.9445 11.7576  6.7401  7.0084 0.09346  7.639 13.951 31.829 28.080  6.5350 20.2976 30.3588
 1992 051   101    97   6343 26.5447  0.9183 11.3561  6.6397  7.1149 0.09779  7.572 13.661 32.293 28.474  6.5703 20.2680 30.1675
 1992 052   102    98   6394 18.6137  0.8904  9.1249  4.7608  4.0309 0.04612  7.480 13.344 26.596 21.850  6.5624 20.2483 30.2368
 1992 053   103    99   6397  7.7594  0.8406  4.8545  1.8297  2.0694 0.00000  7.369 13.012 18.304 16.663  6.5560 20.1614 30.3638
 1992 054   104   100   6456 20.2736  0.7797  9.5950  5.3871  3.9495 0.06874  7.289 12.741 24.864 21.726  6.5524 20.1378 30.4095
 1992 055   105   101   6532 23.2487  0.7777 10.9207  6.2683  3.9595 0.06045  7.198 12.460 24.862 21.260  6.5448 20.1122 30.4830
 1992 056   106   102   6606 22.0382  0.6576 10.3316  6.0725  3.4744 0.07991  7.127 12.236 23.749 19.899  6.5411 20.0532 30.5648
 1992 057   107   103   6670 20.8588  0.7691  9.5362  5.7681  4.0025 0.05777  7.020 11.946 26.914 21.604  6.5368 20.0393 30.6059
 1992 058   108   104   6725 17.4607  0.6514  8.1788  4.9360  3.0890 0.06958  6.934 11.710 23.498 19.330  6.5355 19.9847 30.6683
 1992 059   109   105   6776 14.7773  0.5801  7.3314  4.5078  2.1531 0.05591  6.850 11.493 20.460 15.758  6.5398 19.8432 30.7833
 1992 060   110   106   6834 17.4663  0.6138  8.1778  5.0371  2.8131 0.06524  6.758 11.265 23.075 18.196  6.5389 19.7727 30.8589
 1992 061   111   107   6887 17.1275  0.6921  7.7599  4.7708  3.2994 0.05543  6.641 10.991 24.929 20.195  6.5362 19.7513 30.8976
 1992 062   112   108   6934 16.4436  0.6957  7.1963  4.4619  3.5734 0.06058  6.519 10.716 25.656 21.456  6.5357 19.7443 30.9077
 1992 063   113   109   6962 12.0675  0.7945  5.3156  3.0146  3.4090 0.02843  6.357 10.371 25.500 21.871  6.5335 19.7463 30.9196
 1992 064   114   110   6966  8.8546  0.8923  3.8692  1.8997  3.4829 0.00000  6.156  9.958 25.840 22.995  6.5300 19.7563 30.9310
 1992 065   115   111   6999 13.6184  0.7033  5.6187  3.4117  3.7420 0.04827  6.009  9.658 26.624 22.856  6.5314 19.7569 30.9221
 1992 066   116   112   7028 12.5242  0.7913  5.2685  2.9485  3.6632 0.01591  5.824  9.292 25.762 22.990  6.5290 19.7656 30.9285
 1992 067   117   113   7058 12.5292  0.8084  5.3241  2.2347  3.9663 0.00000  5.624  8.903 28.890 23.738  6.4844 19.8640 31.1087
 1992 068   118   114   6852  9.1305  0.7921  3.4958  1.8369  3.9035 0.00000  5.354  7.981 28.457 24.585  6.4809 19.8771 31.1175
 1992 069   119   115   6678  6.3937  0.6684  2.2054  1.0380  3.5889 0.00000  5.092  7.179 27.752 24.769  6.4806 19.8816 31.1149
 1992 070   120   116   6518  3.4454  0.5412  0.9216  0.2644  2.8315 0.00000  4.848  6.499 24.304 22.990  6.4800 19.8834 31.1168
 1992 071   121   117   6391  3.6745  0.4811  0.8820  0.2530  3.0551 0.00000  4.607  5.902 26.429 24.300  6.4797 19.8852 31.1166
 1992 072   122   118   6287  3.3656  0.4288  0.3998  0.1147  3.2983 0.00000  4.365  5.377 28.668 25.760  6.4798 19.8860 31.1154
 1992 073   123   119   6205  2.2863  0.3720  0.0000  0.0000  2.9787 0.00000  4.132  4.925 27.340 25.036  6.4798 19.8860 31.1154
 1992 074   124   120   6138  2.3162  0.3321  0.0000  0.0000  3.0764 0.00000  3.909  4.529 28.759 25.641  6.4798 19.8860 31.1154
 1992 075   125   121   6082  2.1365  0.2775  0.0204  0.0059  2.3884 0.00000  3.713  4.197 25.302 22.503  6.4798 19.8861 31.1154
 1992 076   126   122   6039  1.7164  0.2301  0.0992  0.0285  1.8241 0.00000  3.544  3.921 23.201 19.341  6.4797 19.8858 31.1163
 1992 077   127   123   6002  1.4746  0.2228  0.0000  0.0000  2.1427 0.00000  3.372  3.669 26.381 21.213  6.4797 19.8858 31.1163
 1992 078   128   124   5970  1.1885  0.2145  0.0000  0.0000  2.4273 0.00000  3.201  3.437 28.121 23.061  6.4797 19.8858 31.1163
 1992 079   129   125   5943  0.9447  0.2029  0.0000  0.0000  2.5488 0.00000  3.035  3.225 28.679 23.975  6.4797 19.8858 31.1163

*DSSAT Cropping System Model Ver. 4.6.1.000 -release      NOV 14, 2016; 11:44:03
                                                                                
*RUN   3        : UYSB                      CRGRO046 UYSB1056    1              
 MODEL          : CRGRO046 - Soybean                                            
 EXPERIMENT     : UYSB1056 SN late to create DSS                                
 DATA PATH      :                                                               
 TREATMENT  1   : UYSB                      CRGRO046                            
  
@YEAR DOY   DAS   DAP   TWAD    PHAD    CMAD    CGRD    GRAD    MRAD    CHAD   CL%D   CS%D   TGNN   TGAV    GN%D    GL%D    GC%D
 1992 319     4     0      0  0.0000  0.0000  0.0000  0.0000  0.0000 0.00000  0.000  0.000 29.032 22.943  0.0000  0.0000  0.0000
 1992 320     5     1      0  0.0000  0.0000  0.0000  0.0000  0.0000 0.00000  0.000  0.000 24.361 21.423  0.0000  0.0000  0.0000
 1992 321     6     2      0  0.0000  0.0000  0.0000  0.0000  0.0000 0.00000  0.000  0.000 19.166 15.978  0.0000  0.0000  0.0000
 1992 322     7     3      0  0.0000  0.0000  0.0000  0.0000  0.0000 0.00000  0.000  0.000 19.592 14.648  0.0000  0.0000  0.0000
 1992 323     8     4      0  0.0000  0.0000  0.0000  0.0000  0.0000 0.00000  0.000  0.000 21.596 15.612  0.0000  0.0000  0.0000
 1992 324     9     5      8  0.0000  0.0005  0.0003  0.0001  0.0000 0.00000  3.944  7.884 25.773 19.718  0.0000  0.0000  0.0000
 1992 325    10     6      9  0.1652  0.0006  0.1024  0.0348  0.0134 0.00000  3.892  7.785 27.774 21.970  0.0000  0.0000  0.0000
 1992 326    11     7      9  0.0795  0.0004  0.0496  0.0173  0.0058 0.00000  3.854  7.710 20.158 17.435  0.0000  0.0000  0.0000
 1992 327    12     8     10  0.1433  0.0003  0.0918  0.0321  0.0064 0.00000  3.835  7.679 18.028 14.695  0.0000  0.0000  0.0000
 1992 328    13     9     11  0.1382  0.0003  0.0898  0.0307  0.0060 0.00000  3.818  7.659 18.661 13.572  0.0000  0.0000  0.0000
 1992 329    14    10     12  0.2296  0.0006  0.1482  0.0483  0.0141 0.00000  3.786  7.625 23.969 18.629  0.0000  0.0000  0.0000
 1992 330    15    11     14  0.2353  0.0007  0.1520  0.0483  0.0157 0.00000  3.749  7.584 22.744 19.697  0.0000  0.0000  0.0000
 1992 331    16    12     15  0.2462  0.0008  0.1585  0.0499  0.0178 0.00000  3.711  7.541 24.411 20.218  0.0000  0.0000  0.0000
 1992 332    17    13     17  0.3369  0.0009  0.2181  0.0681  0.0231 0.00000  3.680  7.520 25.261 20.136  0.0000  0.0000  0.0000
 1992 333    18    14     19  0.3028  0.0011  0.1947  0.0604  0.0234 0.00000  3.645  7.480 25.778 20.688  0.0000  0.0000  0.0000
 1992 334    19    15     21  0.3135  0.0014  0.1976  0.0611  0.0304 0.00000  3.601  7.421 28.057 23.433  0.0000  0.0000  0.0000
 1992 335    20    16     23  0.3573  0.0016  0.2279  0.0771  0.0336 0.00000  3.634  7.341 26.745 23.412  0.0000  0.0000  0.0000
 1992 336    21    17     26  0.4689  0.0013  0.2843  0.1088  0.0292 0.00000  3.637  7.329 22.566 19.017  0.0000  0.0000  0.0000
 1992 337    22    18     29  0.5079  0.0012  0.3200  0.1132  0.0278 0.00000  3.644  7.340 22.660 16.961  0.0000  0.0000  0.0000
 1992 338    23    19     33  0.6072  0.0015  0.3830  0.1297  0.0386 0.00000  3.641  7.352 25.021 18.677  0.0000  0.0000  0.0000
 1992 339    24    20     37  0.7258  0.0021  0.4534  0.1507  0.0557 0.00000  3.629  7.354 27.006 21.414  0.0000  0.0000  0.0000
 1992 340    25    21     41  0.6352  0.0024  0.3896  0.1387  0.0511 0.00000  3.617  7.324 26.269 21.108  0.0000  0.0000  0.0000
 1992 341    26    22     46  0.8585  0.0032  0.5416  0.1783  0.0813 0.00000  3.638  7.297 28.167 24.332  0.0000  0.0000  0.0000
 1992 342    27    23     52  0.9623  0.0029  0.5865  0.2099  0.0706 0.00000  3.619  7.312 24.928 20.986  0.0000  0.0000  0.0000
 1992 343    28    24     58  1.1266  0.0034  0.7039  0.2347  0.0857 0.00000  3.604  7.330 26.149 21.454  0.0000  0.0000  0.0000
 1992 344    29    25     65  1.1341  0.0040  0.7059  0.2358  0.0897 0.00000  3.588  7.326 25.338 21.682  0.0000  0.0000  0.0000
 1992 345    30    26     73  1.3270  0.0048  0.8104  0.2836  0.1123 0.00000  3.582  7.310 26.072 22.775  0.0000  0.0000  0.0000
 1992 346    31    27     82  1.5505  0.0048  0.9661  0.3305  0.1151 0.00000  3.576  7.322 25.060 21.190  0.0000  0.0000  0.0000
 1992 347    32    28     94  1.9564  0.0052  1.2305  0.4175  0.1350 0.00000  3.575  7.353 25.448 20.467  0.0000  0.0000  0.0000
 1992 348    33    29    108  2.2114  0.0069  1.3727  0.4714  0.1837 0.00000  3.565  7.362 28.162 22.680  0.0000  0.0000  0.0000
 1992 349    34    30    122  2.3824  0.0078  1.4740  0.5197  0.1905 0.00000  3.561  7.357 26.709 22.159  0.0000  0.0000  0.0000
 1992 350    35    31    139  2.6930  0.0072  1.6969  0.5904  0.1758 0.00000  3.565  7.377 25.605 19.155  0.0000  0.0000  0.0000
 1992 351    36    32    155  2.7247  0.0096  1.6951  0.5848  0.2173 0.00000  3.555  7.367 27.499 21.300  0.0000  0.0000  0.0000
 1992 352    37    33    171  2.6095  0.0121  1.6153  0.5460  0.2346 0.00000  3.529  7.335 26.283 22.736  0.0000  0.0000  0.0000
 1992 353    38    34    191  3.5525  0.0129  2.1249  0.8322  0.3042 0.00000  3.553  7.301 28.286 22.589  0.0000  0.0000  0.0000
 1992 354    39    35    209  3.1920  0.0146  1.8951  0.7407  0.2994 0.00000  3.554  7.254 28.646 22.842  0.0000  0.0000  0.0000
 1992 355    40    36    237  4.9543  0.0182  2.9015  1.1314  0.5239 0.00000  3.565  7.227 31.713 26.088  0.0000  0.0000  0.0000
 1992 356    41    37    267  5.2762  0.0191  3.1286  1.2173  0.5008 0.00000  3.572  7.209 30.180 24.197  0.0000  0.0000  0.0000
 1992 357    42    38    288  3.6409  0.0226  2.1352  0.8289  0.3931 0.00000  3.549  7.145 27.964 24.095  0.0000  0.0000  0.0000
 1992 358    43    39    311  4.1432  0.0248  2.4356  0.9433  0.4393 0.00000  3.528  7.090 26.782 24.310  0.0000  0.0000  0.0000
 1992 359    44    40    358  8.2600  0.0251  5.0599  1.8497  0.6865 0.00000  3.576  7.117 27.410 23.397  0.0000  0.0000  0.0000
 1992 360    45    41    408  8.5899  0.0257  5.1410  2.0080  0.6291 0.00000  3.584  7.141 25.763 21.356  0.0000  0.0000  0.0000
 1992 361    46    42    476 11.2837  0.0277  6.9083  2.5911  0.7480 0.00000  3.603  7.187 25.510 20.422  0.0000  0.0000  0.0000
 1992 362    47    43    552 12.6471  0.0328  7.7050  2.9138  0.8542 0.03141  3.657  7.353 25.949 20.431  0.0000  0.0000  0.0000
 1992 363    48    44    634 13.9445  0.0432  8.3491  3.1638  1.1653 0.07576  3.743  7.613 29.481 22.709  0.0000  0.0000  0.0000
 1992 364    49    45    675  7.3089  0.0541  4.2292  1.6599  0.7489 0.06270  3.766  7.723 24.813 22.699  0.0000  0.0000  0.0000
 1992 365    50    46    721  7.9434  0.0537  4.6379  1.8124  0.7286 0.09390  3.819  7.916 22.806 21.480  0.0000  0.0000  0.0000
 1992 366    51    47    758  7.4262  0.0512  4.5592  1.5844  0.6196 0.11440  3.910  8.146 20.066 19.708  0.0000  0.0000  0.0000
 1993 001    52    48    796  8.2921  0.0000  4.9346  1.2808  0.7160 0.71240  4.570 10.054 20.986 20.413  0.0000  0.0000  0.0000
 1993 002    53    49    842  8.8815  0.0728  5.3214  1.8388  0.7743 0.18933  4.651 10.245 21.479 20.619  0.0000  0.0000  0.0000
 1993 003    54    50    893  9.4630  0.0797  5.7867  1.9000  0.8363 0.23174  4.752 10.487 21.606 20.817  0.0000  0.0000  0.0000
 1993 004    55    51    983 15.0889  0.1080  9.6219  2.6490  1.5319 0.46421  4.957 11.015 27.681 24.419  0.0000  0.0000  0.0000
 1993 005    56    52   1105 21.1953  0.1337 11.9160  4.3623  2.2653 0.65639  5.172 11.655 29.553 26.219  0.0000  0.0000  0.0000
 1993 006    57    53   1228 25.3297  0.1536 10.6793  6.4118  2.6363 0.66244  5.244 12.139 30.349 25.940  0.0000  0.0000  0.0000
 1993 007    58    54   1301 16.1275  0.1664  7.7118  3.8537  1.7063 0.53319  5.386 12.475 26.273 23.799  0.0000  0.0000  0.0000
 1993 008    59    55   1435 22.8079  0.1770 14.3887  4.1910  2.1038 1.07841  5.756 13.273 25.725 23.395  0.0000  0.0000  0.0000
 1993 009    60    56   1606 29.3237  0.1844 15.7037  6.5323  2.2622 1.31950  5.991 14.054 25.431 21.524  0.0000  0.0000  0.0000
 1993 010    61    57   1765 30.8584  0.2418 15.7510  6.8354  2.9149 1.40147  6.259 14.741 29.062 23.650  0.0000  0.0000  0.0000
 1993 011    62    58   1928 32.1192  0.2968 16.3240  7.2716  3.3889 1.53652  6.514 15.375 30.227 24.994  0.0000  0.0000  0.0000
 1993 012    63    59   2099 32.9665  0.3596 16.9690  7.1767  3.8415 1.69805  6.751 15.970 30.927 26.232  0.0000  0.0000  0.0000
 1993 013    64    60   2247 29.2983  0.4200 14.9037  6.2493  3.8371 1.55281  6.929 16.407 31.332 26.924  0.0000  0.0000  0.0000
 1993 014    65    61   2372 25.6831  0.4698 13.0220  5.4789  3.4390 1.38194  7.063 16.722 29.041 26.245  0.0000  0.0000  0.0000
 1993 015    66    62   2556 33.2861  0.5119 19.7722  5.5177  4.2322 2.30789  7.408 17.423 29.671 26.696  0.0000  0.0000  0.0000
 1993 016    67    63   2693 26.6913  0.5534 13.6711  5.4543  3.4684 1.51599  7.494 17.688 27.614 25.285  0.0000  0.0000  0.0000
 1993 017    68    64   2874 31.8760  0.4218 17.7938  6.2774  2.5910 2.08073  7.718 18.229 22.385 19.984  0.0000  0.0000  0.0000
 1993 018    69    65   3055 31.0234  0.4041 17.8169  6.1543  2.3460 2.09884  7.939 18.749 23.008 18.313  0.0000  0.0000  0.0000
 1993 019    70    66   3262 34.9567  0.0000 19.3921  5.8766  3.2201 3.14188  8.426 19.934 25.006 21.100  0.0000  0.0000  0.0000
 1993 020    71    67   3483 37.4141  0.0000 18.8853  5.6055  4.1702 5.25247  9.264 22.076 28.245 23.408  0.0000  0.0000  0.0000
 1993 021    72    68   3705 37.8017  0.0000 17.5674  5.2572  4.6189 6.73447 10.314 24.757 29.693 24.212  0.0000  0.0000  0.0000
 1993 022    73    69   3912 37.9090  0.0000 18.4415  5.6743  5.5440 4.65969 10.951 26.249 31.351 26.550  0.0000  0.0000  0.0000
 1993 023    74    70   4088 35.3207  0.8260 18.6473  5.8595  6.0339 2.17085 11.063 26.374 32.630 28.044  0.0000  0.0000  0.0000
 1993 024    75    71   4270 37.1883  0.5338 19.1337  6.1288  6.5830 2.21411 11.236 26.640 33.095 28.689  0.0000  0.0000  0.0000
 1993 025    76    72   4381 26.8274  1.2878 14.3695  5.5058  4.2327 0.57477 11.173 26.356 26.683 24.319  0.0000  0.0000  0.0000
 1993 026    77    73   4526 34.2389  1.3584 18.4262  6.5174  5.2467 1.53429 11.177 26.221 29.845 25.332  0.0000  0.0000  0.0000
 1993 027    78    74   4576 17.8271  1.0467  9.6330  3.6376  3.1972 0.04722 11.097 25.942 23.844 22.160  6.2337 20.3326 32.2068
 1993 028    79    75   4746 36.4507  0.0000 17.1754  6.1154  5.2881 3.61448 11.671 27.258 28.198 24.868  6.3748 20.4437 31.2141
 1993 029    80    76   4876 33.2353  1.4949 17.9999  7.0969  4.6467 0.47956 11.596 26.936 26.781 23.415  6.3473 20.4691 31.3603
 1993 030    81    77   5044 37.6491  0.0000 18.3808  7.0366  5.1775 2.48138 12.032 27.874 27.824 23.814  6.3496 20.4814 31.3337
 1993 031    82    78   5112 22.9049  1.5838 12.7803  4.7667  3.9559 0.00591 11.920 27.462 24.551 22.904  6.3252 20.4732 31.4945
 1993 032    83    79   5226 33.2434  1.7082 18.0142  7.2685  5.0815 0.00000 11.791 27.007 27.384 24.055  6.3402 20.4814 31.3925
 1993 033    84    80   5318 34.8083  1.7009 18.0771  7.7890  5.1039 0.00000 11.662 26.552 26.852 23.702  6.3410 20.4866 31.3821
 1993 034    85    81   5430 33.0907  1.6597 16.8670  7.6125  4.8351 0.00000 11.536 26.104 26.534 23.098  6.3267 20.4837 31.4742
 1993 035    86    82   5559 35.8133  1.5409 18.4236  8.7230  4.5071 0.00000 11.425 25.690 25.917 21.443  6.2965 20.3983 31.7486
 1993 036    87    83   5676 35.5957  1.7448 18.5665  8.2306  5.6269 0.00000 11.292 25.215 28.640 24.239  6.3165 20.4199 31.6020
 1993 037    88    84   5763 31.8147  1.7399 15.8880  7.5741  5.4970 0.00000 11.159 24.739 29.219 24.282  6.3322 20.4360 31.4880
 1993 038    89    85   5800 19.1180  1.4400 10.6246  4.8395  3.1668 0.00000 11.061 24.347 22.050 19.689  6.3010 20.2101 31.9085
 1993 039    90    86   5806 11.8778  1.2464  7.5243  3.1977  2.2440 0.00000 10.990 24.011 18.893 17.140  6.2962 19.6797 32.4688
 1993 040    91    87   5854 20.0055  1.2682 11.1920  5.4587  2.6472 0.00000 10.931 23.668 20.128 17.482  6.2885 19.3176 32.8791
 1993 041    92    88   5946 30.8258  1.3824 16.0981  8.1873  3.7027 0.00000 10.865 23.287 24.222 19.109  6.2716 19.2559 33.0465
 1993 042    93    89   6049 34.2039  1.5714 18.3420  8.5529  4.9549 0.00000 10.775 22.840 27.343 22.052  6.2647 19.4232 32.9224
 1993 043    94    90   6134 31.9709  1.6465 15.9288  8.3230  5.4751 0.00000 10.671 22.360 28.653 23.649  6.2759 19.5859 32.6900
 1993 044    95    91   6195 28.2438  1.5630 14.5409  7.5933  4.6401 0.00000 10.575 21.896 25.875 22.158  6.2699 19.6913 32.6219
 1993 045    96    92   6267 30.2627  1.5602 15.1568  8.1724  5.1506 0.00000 10.477 21.420 27.925 22.887  6.2710 19.7917 32.5147
 1993 046    97    93   6349 31.4772  1.3119 15.8634  8.6316  4.9799 0.06018 10.426 21.048 26.881 22.236  6.2844 19.8238 32.3984
 1993 047    98    94   6372 16.3512  1.4226  9.6095  3.8255  3.8095 0.00529 10.338 20.596 24.511 21.403  6.2801 19.8414 32.4082
 1993 048    99    95   6376 15.8152  1.4115  9.2951  3.6419  3.8075 0.00361 10.244 20.133 23.638 21.567  6.2764 19.8604 32.4124
 1993 049   100    96   6436 25.1487  1.2940 12.5982  6.4342  5.2372 0.06497 10.177 19.731 27.774 23.882  6.2981 19.8794 32.2575
 1993 050   101    97   6494 22.1246  1.3280 11.2630  5.4033  4.9906 0.04856 10.089 19.294 26.548 23.799  6.3122 19.8983 32.1501
 1993 051   102    98   6557 21.7156  1.1372 11.1434  5.6237  4.1146 0.06122 10.019 18.922 24.184 21.293  6.3178 19.8835 32.1303
 1993 052   103    99   6635 22.6435  0.8610 11.7147  6.6613  3.0430 0.08520  9.986 18.661 21.372 17.519  6.3302 19.7156 32.2209
 1993 053   104   100   6724 25.8109  0.8605 12.7264  7.4582  3.6635 0.10538  9.953 18.405 23.913 18.990  6.3405 19.6236 32.2479
 1993 054   105   101   6810 25.5442  0.9252 12.4856  7.3691  3.7519 0.08979  9.896 18.108 24.042 19.441  6.3468 19.5659 32.2667
 1993 055   106   102   6895 25.7047  0.9118 12.2709  7.3445  4.0284 0.10499  9.837 17.818 24.409 20.451  6.3549 19.5394 32.2425
 1993 056   107   103   6964 22.1381  0.9893 10.6025  6.1412  3.9717 0.08365  9.746 17.475 24.818 20.897  6.3605 19.5298 32.2173
 1993 057   108   104   7040 24.0905  0.9350 11.1835  6.7702  4.2110 0.10150  9.660 17.157 25.505 21.335  6.3683 19.5238 32.1742
 1993 058   109   105   7110 23.4609  1.0246 10.5692  6.4220  4.8064 0.08459  9.540 16.784 28.306 22.997  6.3770 19.5369 32.1067
 1993 059   110   106   7155 19.3360  1.2064  8.2880  4.7481  5.7450 0.05504  9.362 16.304 30.968 26.516  6.3911 19.5506 32.0047
 1993 060   111   107   7204 17.3585  0.9715  8.1593  4.7253  3.5257 0.06267  9.221 15.922 23.942 20.595  6.3934 19.5404 32.0008
 1993 061   112   108   7258 16.6479  0.8329  8.0395  4.7940  2.7428 0.06702  9.098 15.597 21.825 17.767  6.3977 19.4764 32.0378
 1993 062   113   109   7318 18.1632  0.7993  8.5185  5.2731  2.9492 0.07874  8.979 15.289 22.937 18.239  6.4024 19.4219 32.0632
 1993 063   114   110   7367 14.7863  0.7724  7.1727  4.5586  2.3759 0.06411  8.853 14.979 21.076 16.487  6.4084 19.3397 32.1075
 1993 064   115   111   7411 14.7882  0.8843  6.8501  4.1875  3.0265 0.05426  8.691 14.606 23.906 19.175  6.4101 19.3185 32.1187
 1993 065   116   112   7430 10.6073  1.0623  4.7380  2.5004  3.5745 0.02555  8.471 14.124 25.288 22.337  6.4106 19.3281 32.1058
 1993 066   117   113   7429  7.3741  1.1198  3.3619  1.4589  3.3926 0.00000  8.217 13.588 24.102 22.538  6.4089 19.3394 32.1047
 1993 067   118   114   7458 13.2998  0.9923  5.5183  3.3259  4.1096 0.03753  7.996 13.130 27.343 23.648  6.4121 19.3502 32.0743
 1993 068   119   115   7502 14.1069  0.6779  6.4349  2.6214  3.5164 0.10332  7.870 12.865 25.749 21.416  6.3576 19.4692 32.2960
 1993 069   120   116   7359 14.3882  0.1526  6.0675  2.2751  3.8134 0.26564  7.901 12.490 26.945 22.400  6.3042 19.5917 32.5073
 1993 070   121   117   7237 11.6335  0.8718  5.1148  2.1523  3.6600 0.01311  7.573 11.609 27.473 22.788  6.2665 19.6812 32.6534
 1993 071   122   118   7117  7.2084  0.8073  2.6240  1.3570  3.6264 0.00000  7.227 10.788 29.206 23.954  6.2664 19.6890 32.6457
 1993 072   123   119   7006  4.5839  0.6925  1.5926  0.6595  2.9164 0.00000  6.900 10.067 24.760 22.491  6.2664 19.6923 32.6429
 1993 073   124   120   6925  4.9634  0.6247  1.5752  0.6536  3.1359 0.00000  6.579  9.416 27.576 23.392  6.2666 19.6959 32.6378
 1993 074   125   121   6849  1.9669  0.5594  0.0000  0.0000  2.8198 0.00000  6.251  8.831 26.477 23.182  6.2666 19.6959 32.6378
 1993 075   126   122   6775  1.3587  0.4948  0.0000  0.0000  2.5675 0.00000  5.946  8.313 25.655 22.325  6.2666 19.6959 32.6378
 1993 076   127   123   6722  2.2700  0.4775  0.0000  0.0000  3.0693 0.00000  5.639  7.825 28.016 24.616  6.2666 19.6959 32.6378
 1993 077   128   124   6678  2.0073  0.4425  0.0000  0.0000  3.2433 0.00000  5.343  7.376 29.662 25.520  6.2666 19.6959 32.6378
 1993 078   129   125   6642  1.5246  0.3737  0.0000  0.0000  2.3439 0.00000  5.087  6.994 25.687 21.406  6.2666 19.6959 32.6378
 1993 079   130   126   6613  1.0222  0.3018  0.0000  0.0000  1.4891 0.00000  4.875  6.682 19.814 16.666  6.2666 19.6959 32.6378
 1993 080   131   127   6588  0.8855  0.2960  0.0000  0.0000  1.7076 0.00000  4.663  6.382 22.587 17.920  6.2666 19.6959 32.6378
=======
*PLANT C OUTPUT FILE

*DSSAT Cropping System Model Ver. 4.6.1.000 -release      NOV 14, 2016; 08:58:45
                                                                                
*RUN   1        : UYSB                      CRGRO046 UYSB1082    1              
 MODEL          : CRGRO046 - Soybean                                            
 EXPERIMENT     : UYSB1082 SN late to create DSS                                
 DATA PATH      :                                                               
 TREATMENT  1   : UYSB                      CRGRO046                            
  
@YEAR DOY   DAS   DAP   TWAD    PHAD    CMAD    CGRD    GRAD    MRAD    CHAD   CL%D   CS%D   TGNN   TGAV    GN%D    GL%D    GC%D
 1988 319     4     0      0  0.0000  0.0000  0.0000  0.0000  0.0000 0.00000  0.000  0.000 23.459 18.982  0.0000  0.0000  0.0000
 1988 320     5     1      0  0.0000  0.0000  0.0000  0.0000  0.0000 0.00000  0.000  0.000 25.410 19.249  0.0000  0.0000  0.0000
 1988 321     6     2      0  0.0000  0.0000  0.0000  0.0000  0.0000 0.00000  0.000  0.000 31.475 23.916  0.0000  0.0000  0.0000
 1988 322     7     3      0  0.0000  0.0000  0.0000  0.0000  0.0000 0.00000  0.000  0.000 32.415 26.754  0.0000  0.0000  0.0000
 1988 323     8     4      0  0.0000  0.0000  0.0000  0.0000  0.0000 0.00000  0.000  0.000 25.551 22.828  0.0000  0.0000  0.0000
 1988 324     9     5      8  0.0000  0.0007  0.0004  0.0002  0.0000 0.00000  3.924  7.841 28.151 24.639  0.0000  0.0000  0.0000
 1988 325    10     6      9  0.1591  0.0006  0.0977  0.0345  0.0143 0.00000  3.866  7.734 27.793 23.600  0.0000  0.0000  0.0000
 1988 326    11     7      9  0.0845  0.0004  0.0529  0.0188  0.0060 0.00000  3.830  7.666 21.160 17.398  0.0000  0.0000  0.0000
 1988 327    12     8     10  0.1742  0.0004  0.1123  0.0385  0.0088 0.00000  3.806  7.638 20.277 16.550  0.0000  0.0000  0.0000
 1988 328    13     9     11  0.2216  0.0005  0.1439  0.0475  0.0116 0.00000  3.783  7.623 22.588 16.782  0.0000  0.0000  0.0000
 1988 329    14    10     13  0.2713  0.0006  0.1757  0.0567  0.0165 0.00000  3.754  7.601 24.051 18.926  0.0000  0.0000  0.0000
 1988 330    15    11     15  0.3021  0.0008  0.1938  0.0622  0.0214 0.00000  3.723  7.569 26.678 20.299  0.0000  0.0000  0.0000
 1988 331    16    12     17  0.2459  0.0010  0.1567  0.0472  0.0202 0.00000  3.682  7.513 25.921 21.226  0.0000  0.0000  0.0000
 1988 332    17    13     18  0.2495  0.0006  0.1640  0.0507  0.0119 0.00000  3.670  7.507 19.405 14.925  0.0000  0.0000  0.0000
 1988 333    18    14     20  0.2914  0.0007  0.1919  0.0583  0.0152 0.00000  3.654  7.501 21.316 15.796  0.0000  0.0000  0.0000
 1988 334    19    15     22  0.3727  0.0010  0.2435  0.0734  0.0235 0.00000  3.631  7.487 24.257 18.307  0.0000  0.0000  0.0000
 1988 335    20    16     25  0.4088  0.0014  0.2461  0.0973  0.0306 0.00000  3.644  7.425 26.173 20.259  0.0000  0.0000  0.0000
 1988 336    21    17     27  0.4364  0.0016  0.2651  0.0996  0.0354 0.00000  3.638  7.370 25.929 21.484  0.0000  0.0000  0.0000
 1988 337    22    18     30  0.5397  0.0018  0.3310  0.1200  0.0440 0.00000  3.628  7.339 26.916 21.898  0.0000  0.0000  0.0000
 1988 338    23    19     34  0.6690  0.0022  0.4079  0.1445  0.0622 0.00000  3.615  7.323 29.783 23.868  0.0000  0.0000  0.0000
 1988 339    24    20     39  0.7655  0.0027  0.4551  0.1687  0.0806 0.00000  3.606  7.295 31.466 25.766  0.0000  0.0000  0.0000
 1988 340    25    21     44  0.9328  0.0028  0.5510  0.2051  0.1024 0.00000  3.605  7.290 33.858 26.258  0.0000  0.0000  0.0000
 1988 341    26    22     49  0.9304  0.0034  0.5517  0.1993  0.1062 0.00000  3.586  7.275 33.136 26.540  0.0000  0.0000  0.0000
 1988 342    27    23     54  0.8386  0.0036  0.5137  0.1783  0.0795 0.00000  3.559  7.259 27.548 23.390  0.0000  0.0000  0.0000
 1988 343    28    24     61  1.1617  0.0034  0.7212  0.2519  0.0857 0.00000  3.559  7.283 25.796 20.957  0.0000  0.0000  0.0000
 1988 344    29    25     70  1.4811  0.0038  0.9156  0.3314  0.1049 0.00000  3.571  7.312 26.377 20.678  0.0000  0.0000  0.0000
 1988 345    30    26     81  1.7148  0.0044  1.0637  0.3783  0.1254 0.00000  3.577  7.342 27.518 20.852  0.0000  0.0000  0.0000
 1988 346    31    27     92  1.9925  0.0061  1.2107  0.4248  0.1919 0.00000  3.569  7.351 31.453 24.609  0.0000  0.0000  0.0000
 1988 347    32    28     98  0.9991  0.0059  0.6184  0.2126  0.0882 0.00000  3.539  7.307 22.407 20.544  0.0000  0.0000  0.0000
 1988 348    33    29    112  2.2704  0.0074  1.3998  0.4955  0.1867 0.00000  3.535  7.317 26.455 22.836  0.0000  0.0000  0.0000
 1988 349    34    30    129  2.7635  0.0076  1.7191  0.6024  0.2090 0.00000  3.538  7.346 27.684 21.449  0.0000  0.0000  0.0000
 1988 350    35    31    147  3.0758  0.0097  1.9147  0.6558  0.2474 0.00000  3.530  7.358 26.890 22.554  0.0000  0.0000  0.0000
 1988 351    36    32    167  3.3307  0.0106  2.0715  0.7048  0.2751 0.00000  3.522  7.366 28.766 22.209  0.0000  0.0000  0.0000
 1988 352    37    33    184  2.8952  0.0141  1.6935  0.6628  0.3106 0.00000  3.524  7.300 30.452 24.934  0.0000  0.0000  0.0000
 1988 353    38    34    208  4.2364  0.0155  2.5103  0.9802  0.4019 0.00000  3.543  7.268 29.198 24.612  0.0000  0.0000  0.0000
 1988 354    39    35    233  4.2961  0.0164  2.5669  1.0002  0.3775 0.00000  3.552  7.240 27.979 23.070  0.0000  0.0000  0.0000
 1988 355    40    36    265  5.3204  0.0132  3.2757  1.2744  0.3137 0.00000  3.580  7.262 23.986 18.290  0.0000  0.0000  0.0000
 1988 356    41    37    305  6.6456  0.0171  4.1813  1.5277  0.4391 0.00000  3.625  7.279 26.000 19.802  0.0000  0.0000  0.0000
 1988 357    42    38    339  6.0477  0.0271  3.5803  1.3878  0.5869 0.00000  3.610  7.234 27.643 24.526  0.0000  0.0000  0.0000
 1988 358    43    39    388  8.1578  0.0289  5.1740  1.6988  0.8124 0.00000  3.637  7.223 31.313 25.150  0.0000  0.0000  0.0000
 1988 359    44    40    450  9.9050  0.0000  5.6260  1.6556  0.9957 0.80983  6.605  9.795 32.306 25.319  0.0000  0.0000  0.0000
 1988 360    45    41    521 11.2530  0.0000  5.8768  1.6085  1.2834 1.55875 11.060 13.616 32.964 27.482  0.0000  0.0000  0.0000
 1988 361    46    42    592 11.3290  0.0000  5.8418  1.5610  1.3502 1.64634 14.715 16.724 33.404 27.491  0.0000  0.0000  0.0000
 1988 362    47    43    640  8.8834  0.1399  4.7454  2.1504  1.0415 0.03261 13.593 15.744 29.235 25.831  0.0000  0.0000  0.0000
 1988 363    48    44    714 12.9206  0.1319  7.7857  2.8362  1.2489 0.09888 12.508 14.826 28.834 24.355  0.0000  0.0000  0.0000
 1988 364    49    45    816 16.2011  0.1056 10.5443  3.4290  1.0931 0.18137 11.497 14.133 25.773 19.789  0.0000  0.0000  0.0000
 1988 365    50    46    931 17.9068  0.0000 10.5552  3.1039  1.3558 1.33572 11.700 16.337 27.278 21.042  0.0000  0.0000  0.0000
 1988 366    51    47   1057 19.3909  0.0000  9.9483  2.6312  1.9596 3.19128 13.262 21.714 30.916 24.788  0.0000  0.0000  0.0000
 1989 001    52    48   1172 20.0182  0.2842 11.9807  3.8587  2.5804 0.40668 12.519 20.740 33.923 28.081  0.0000  0.0000  0.0000
 1989 002    53    49   1294 21.4680  0.2951 12.6839  4.2609  2.7519 0.49293 11.794 19.805 33.841 27.784  0.0000  0.0000  0.0000
 1989 003    54    50   1435 23.2613  0.0000 13.3250  3.7780  2.6817 1.54957 11.863 20.740 32.538 25.943  0.0000  0.0000  0.0000
 1989 004    55    51   1570 24.7008  0.3597 13.7200  5.0750  3.2640 0.70919 11.293 20.037 34.023 27.930  0.0000  0.0000  0.0000
 1989 005    56    52   1715 26.3882  0.3809 14.7353  5.3655  3.3788 0.84630 10.832 19.519 33.348 27.326  0.0000  0.0000  0.0000
 1989 006    57    53   1849 23.9002  0.4149 13.9605  4.5046  3.2497 0.86470 10.509 19.168 32.760 27.311  0.0000  0.0000  0.0000
 1989 007    58    54   1974 23.4900  0.4528 12.9235  4.6497  3.3671 0.92571 10.234 18.910 32.353 27.693  0.0000  0.0000  0.0000
 1989 008    59    55   2126 27.8108  0.4450 15.3450  5.5932  3.3048 1.22877 10.015 18.797 30.224 25.492  0.0000  0.0000  0.0000
 1989 009    60    56   2325 31.4214  0.4201 19.8044  5.5787  3.2357 1.63164  9.872 18.854 29.921 23.325  0.0000  0.0000  0.0000
 1989 010    61    57   2516 30.7589  0.4959 19.1893  5.2793  3.5836 1.67140  9.767 18.929 30.427 24.657  0.0000  0.0000  0.0000
 1989 011    62    58   2691 32.3410  0.5718 17.5134  6.3423  4.0062 1.71406  9.673 19.007 30.243 25.584  0.0000  0.0000  0.0000
 1989 012    63    59   2891 34.4817  0.5809 20.1283  6.3095  4.1171 1.91596  9.635 19.165 30.680 24.802  0.0000  0.0000  0.0000
 1989 013    64    60   3097 35.3258  0.5670 20.6624  6.5837  3.7381 2.01981  9.628 19.369 29.160 22.708  0.0000  0.0000  0.0000
 1989 014    65    61   3295 36.2026  0.6254 19.7275  7.0947  4.0302 2.13383  9.629 19.578 29.569 23.154  0.0000  0.0000  0.0000
 1989 015    66    62   3450 30.0341  0.7472 16.2742  5.5742  4.2844 1.74393  9.617 19.671 30.791 25.236  0.0000  0.0000  0.0000
 1989 016    67    63   3648 36.6248  0.7438 20.1049  7.1052  4.2243 2.25400  9.650 19.893 28.187 23.421  0.0000  0.0000  0.0000
 1989 017    68    64   3851 37.9477  0.7499 20.4834  7.0863  4.9280 2.31294  9.689 20.124 32.286 24.116  0.0000  0.0000  0.0000
 1989 018    69    65   3970 24.8612  0.9151 13.6685  4.3758  4.1471 1.27880  9.664 20.092 29.431 25.059  0.0000  0.0000  0.0000
 1989 019    70    66   4070 22.2745  0.8247 11.9248  4.2879  3.2415 0.89307  9.635 20.020 25.684 22.244  0.0000  0.0000  0.0000
 1989 020    71    67   4231 33.0609  0.9013 17.1857  6.4044  4.4165 1.76498  9.654 20.130 28.183 23.704  0.0000  0.0000  0.0000
 1989 021    72    68   4438 39.4282  0.9644 21.6711  7.1018  5.5841 2.27914  9.713 20.347 31.128 25.216  0.0000  0.0000  0.0000
 1989 022    73    69   4617 37.2221  1.0560 19.2442  6.9617  5.7001 2.02090  9.751 20.484 30.841 25.753  0.0000  0.0000  0.0000
 1989 023    74    70   4800 39.4051  1.1396 19.7594  7.3927  6.4436 2.06705  9.782 20.611 32.009 26.850  0.0000  0.0000  0.0000
 1989 024    75    71   4953 35.1517  1.2085 17.5799  6.5416  6.3724 1.48381  9.775 20.602 32.115 27.243  0.0000  0.0000  0.0000
 1989 025    76    72   5022 19.0936  0.0000  9.3788  3.1591  4.1938 0.36442  9.899 20.780 26.969 24.569  0.0000  0.0000  0.0000
 1989 026    77    73   5185 37.7363  1.2889 18.3727  7.5341  6.1326 1.42356  9.872 20.744 29.810 25.977  0.0000  0.0000  0.0000
 1989 027    78    74   5318 35.4543  1.2803 18.3898  6.8967  5.4314 1.28072  9.864 20.705 28.148 24.423  0.0000  0.0000  0.0000
 1989 028    79    75   5432 32.7588  1.2224 17.0443  6.8922  4.6272 0.64384  9.820 20.543 25.768 22.617  6.2601 20.4194 31.9547
 1989 029    80    76   5531 31.0629  1.3350 15.9947  6.5135  5.0236 0.33502  9.737 20.279 27.311 23.765  6.3193 20.4731 31.5315
 1989 030    81    77   5652 35.2030  1.2660 17.6507  7.7465  4.8319 0.64104  9.691 20.116 26.410 22.364  6.2819 20.4239 31.8142
 1989 031    82    78   5774 36.2871  1.4745 17.6824  7.5367  6.5729 0.77605  9.634 19.939 31.053 26.112  6.3884 20.4534 31.1192
 1989 032    83    79   5854 34.9133  1.5298 17.0911  7.4275  6.5549 0.28803  9.530 19.622 30.646 26.207  6.4461 20.4687 30.7434
 1989 033    84    80   5964 34.9408  1.4184 17.0490  8.1797  5.5475 0.00000  9.411 19.256 28.284 23.702  6.4100 20.4797 30.9580
 1989 034    85    81   6080 37.7166  1.5075 18.2231  8.6215  6.5762 0.09132  9.292 18.892 30.279 25.447  6.4344 20.4853 30.7995
 1989 035    86    82   6225 37.5828  1.1870 19.8438  8.6884  4.6070 0.38106  9.239 18.701 27.261 19.889  6.3769 20.2502 31.3940
 1989 036    87    83   6339 37.0830  1.3956 18.0712  8.8187  5.7423 0.00000  9.126 18.343 29.282 22.984  6.3572 20.2967 31.4708
 1989 037    88    84   6429 34.3403  1.5021 16.2293  7.6406  7.3471 0.09396  9.000 17.978 33.815 26.624  6.4022 20.3341 31.1522
 1989 038    89    85   6435 16.7809  1.5780  8.5253  3.5479  5.3755 0.00000  8.868 17.569 29.887 25.630  6.4237 20.3662 30.9854
 1989 039    90    86   6525 34.9436  1.3319 16.7141  8.9627  4.9210 0.00000  8.772 17.223 26.222 21.322  6.3831 20.3165 31.2891
 1989 040    91    87   6619 34.0288  1.4036 16.8628  8.3694  5.5629 0.00000  8.666 16.853 28.085 22.864  6.3652 20.3395 31.3777
 1989 041    92    88   6718 35.4163  1.4684 17.1493  8.7005  6.4203 0.00000  8.551 16.461 29.693 24.508  6.3728 20.3642 31.3056
 1989 042    93    89   6803 35.0536  1.4876 16.6363  8.4522  7.0389 0.00000  8.432 16.059 31.368 25.648  6.3922 20.3826 31.1663
 1989 043    94    90   6877 33.6374  1.5202 15.6017  7.9504  7.8767 0.02098  8.304 15.646 33.231 27.441  6.4269 20.3971 30.9346
 1989 044    95    91   6942 30.8808  1.4572 14.4304  7.5077  7.1725 0.00000  8.180 15.237 32.462 26.279  6.4443 20.4095 30.8138
 1989 045    96    92   6989 28.8231  1.1479 13.8629  7.2953  6.3175 0.07590  8.114 14.950 30.390 24.779  6.4679 20.3700 30.7054
 1989 046    97    93   7054 29.5187  1.0042 13.8671  7.4150  6.6707 0.11727  8.076 14.718 31.052 25.372  6.5040 20.3145 30.5356
 1989 047    98    94   7126 30.4098  0.9821 14.2895  7.7401  6.6128 0.12233  8.040 14.490 30.000 25.178  6.5326 20.2676 30.4036
 1989 048    99    95   7202 31.3156  0.9788 14.1418  7.8551  7.5397 0.12139  7.999 14.256 32.814 26.600  6.5650 20.2337 30.2351
 1989 049   100    96   7260 29.9951  0.7299 12.5250  6.8467  8.8259 0.20139  8.007 14.134 35.209 29.246  6.5959 20.2299 30.0459
 1989 050   101    97   7318 25.9960  1.0406 11.1741  5.7750  8.3575 0.11171  7.939 13.860 34.385 29.102  6.6193 20.2264 29.9030
 1989 051   102    98   7371 24.8490  0.9498 10.4169  5.3706  8.3219 0.12884  7.881 13.618 34.727 29.088  6.6383 20.2243 29.7864
 1989 052   103    99   7436 24.2534  1.0741 11.4539  6.0188  5.8550 0.06908  7.782 13.298 27.529 24.281  6.6373 20.2136 29.8033
 1989 053   104   100   7513 26.4839  0.9167 12.2623  6.9135  5.5605 0.09169  7.705 13.036 28.137 23.036  6.6334 20.1956 29.8456
 1989 054   105   101   7579 25.0229  0.9669 11.0202  6.2069  6.4902 0.08927  7.611 12.750 30.947 25.419  6.6414 20.1800 29.8112
 1989 055   106   102   7653 25.6945  0.8303 11.4394  6.6873  5.6248 0.11591  7.539 12.521 28.011 23.590  6.6448 20.1579 29.8121
 1989 056   107   103   7731 24.3816  0.7927 11.3748  6.7689  4.3853 0.08557  7.455 12.284 26.564 20.183  6.6364 20.1059 29.9168
 1989 057   108   104   7809 24.2895  0.6927 11.0226  6.7185  4.4249 0.11161  7.390 12.093 27.124 20.210  6.6330 20.0520 29.9917
 1989 058   109   105   7871 22.6830  0.8216  9.6747  5.7789  5.6167 0.09834  7.292 11.844 30.490 23.756  6.6364 20.0400 29.9825
 1989 059   110   106   7923 21.7620  0.8203  8.5762  5.1578  6.7172 0.10862  7.189 11.597 33.433 26.594  6.6454 20.0332 29.9333
 1989 060   111   107   7957 18.1147  1.0488  7.1415  4.0114  6.6633 0.05149  7.019 11.227 32.352 27.652  6.6532 20.0310 29.8862
 1989 061   112   108   7983 14.0002  1.0002  5.9410  3.0810  4.9647 0.03825  6.846 10.862 28.409 24.316  6.6529 20.0304 29.8887
 1989 062   113   109   8020 18.4065  0.9136  6.9846  4.2104  6.4926 0.06983  6.692 10.542 32.434 27.274  6.6618 20.0234 29.8404
 1989 063   114   110   8013  8.7455  1.0945  3.5273  1.3319  4.8826 0.00000  6.473 10.107 28.984 25.320  6.6598 20.0289 29.8476
 1989 064   115   111   8011  7.7399  0.9459  3.5560  1.4907  3.4028 0.00000  6.277  9.725 24.425 20.869  6.6543 20.0276 29.8831
 1989 065   116   112   8055 15.7662  0.7404  6.7105  4.1530  3.9283 0.05055  6.135  9.451 27.191 20.649  6.6502 20.0108 29.9254
 1989 066   117   113   8116 15.1922  0.0000  4.7111  1.3574  4.3567 3.07604  6.705 11.118 28.182 22.317  6.5958 20.1158 30.1604
 1989 067   118   114   7904 14.1749  0.6140  6.0757  2.2117  4.5882 0.14699  6.570 10.413 28.234 23.401  6.5384 20.2306 30.4047
 1989 068   119   115   7718  9.4105  0.9383  3.7530  1.4986  4.1853 0.00000  6.268  9.530 28.801 23.474  6.5135 20.2799 30.5108
 1989 069   120   116   7552  5.1707  0.7952  1.7933  0.5202  3.4939 0.00000  5.979  8.760 26.806 22.616  6.5056 20.2941 30.5459
 1989 070   121   117   7421  5.5246  0.7172  1.6974  0.4927  3.8459 0.00000  5.689  8.069 27.872 24.287  6.4969 20.3120 30.5827
 1989 071   122   118   7312  4.7963  0.5916  1.5436  0.6260  3.1252 0.00000  5.427  7.482 26.294 21.894  6.4956 20.3118 30.5909
 1989 072   123   119   7219  3.4176  0.5137  0.7954  0.2282  2.9359 0.00000  5.178  6.971 27.220 21.368  6.4949 20.3113 30.5958
 1989 073   124   120   7143  2.6281  0.4432  0.4564  0.1309  2.5060 0.00000  4.946  6.530 25.744 19.752  6.4944 20.3100 30.5998
 1989 074   125   121   7076  2.1795  0.4253  0.0000  0.0000  2.8993 0.00000  4.707  6.122 27.664 21.958  6.4944 20.3100 30.5998
 1989 075   126   122   7021  1.4829  0.3902  0.0000  0.0000  2.7954 0.00000  4.477  5.756 27.167 21.924  6.4944 20.3100 30.5998
 1989 076   127   123   6977  1.1990  0.3146  0.0000  0.0000  1.8368 0.00000  4.286  5.456 21.989 17.243  6.4944 20.3100 30.5998
 1989 077   128   124   6940  0.9486  0.2841  0.0000  0.0000  1.7264 0.00000  4.108  5.190 22.551 16.250  6.4944 20.3100 30.5998
 1989 078   129   125   6907  0.9277  0.2991  0.0000  0.0000  2.3492 0.00000  3.917  4.925 25.989 20.009  6.4944 20.3100 30.5998

*DSSAT Cropping System Model Ver. 4.6.1.000 -release      NOV 14, 2016; 08:58:45
                                                                                
*RUN   2        : UYSB                      CRGRO046 UYSB1082    1              
 MODEL          : CRGRO046 - Soybean                                            
 EXPERIMENT     : UYSB1082 SN late to create DSS                                
 DATA PATH      :                                                               
 TREATMENT  1   : UYSB                      CRGRO046                            
  
@YEAR DOY   DAS   DAP   TWAD    PHAD    CMAD    CGRD    GRAD    MRAD    CHAD   CL%D   CS%D   TGNN   TGAV    GN%D    GL%D    GC%D
 1989 319     4     0      0  0.0000  0.0000  0.0000  0.0000  0.0000 0.00000  0.000  0.000 25.858 20.091  0.0000  0.0000  0.0000
 1989 320     5     1      0  0.0000  0.0000  0.0000  0.0000  0.0000 0.00000  0.000  0.000 21.619 17.284  0.0000  0.0000  0.0000
 1989 321     6     2      0  0.0000  0.0000  0.0000  0.0000  0.0000 0.00000  0.000  0.000 22.838 17.249  0.0000  0.0000  0.0000
 1989 322     7     3      0  0.0000  0.0000  0.0000  0.0000  0.0000 0.00000  0.000  0.000 27.655 21.063  0.0000  0.0000  0.0000
 1989 323     8     4      0  0.0000  0.0000  0.0000  0.0000  0.0000 0.00000  0.000  0.000 28.875 23.358  0.0000  0.0000  0.0000
 1989 324     9     5      0  0.0000  0.0000  0.0000  0.0000  0.0000 0.00000  0.000  0.000 26.627 22.793  0.0000  0.0000  0.0000
 1989 325    10     6      8  0.0000  0.0006  0.0004  0.0002  0.0000 0.00000  3.928  7.849 27.965 23.701  0.0000  0.0000  0.0000
 1989 326    11     7      9  0.1798  0.0007  0.1084  0.0384  0.0185 0.00000  3.867  7.736 30.939 25.815  0.0000  0.0000  0.0000
 1989 327    12     8     10  0.2015  0.0007  0.1240  0.0424  0.0191 0.00000  3.812  7.648 29.117 24.709  0.0000  0.0000  0.0000
 1989 328    13     9     11  0.2392  0.0006  0.1544  0.0502  0.0148 0.00000  3.778  7.619 22.494 19.591  0.0000  0.0000  0.0000
 1989 329    14    10     13  0.2443  0.0007  0.1577  0.0506  0.0159 0.00000  3.745  7.587 23.660 19.610  0.0000  0.0000  0.0000
 1989 330    15    11     14  0.2639  0.0008  0.1696  0.0538  0.0191 0.00000  3.709  7.549 24.895 20.666  0.0000  0.0000  0.0000
 1989 331    16    12     16  0.2871  0.0008  0.1865  0.0551  0.0187 0.00000  3.679  7.524 23.101 19.410  0.0000  0.0000  0.0000
 1989 332    17    13     18  0.3354  0.0009  0.2187  0.0652  0.0209 0.00000  3.655  7.511 23.993 18.689  0.0000  0.0000  0.0000
 1989 333    18    14     20  0.3167  0.0012  0.2040  0.0608  0.0244 0.00000  3.621  7.471 25.208 20.728  0.0000  0.0000  0.0000
 1989 334    19    15     23  0.3867  0.0015  0.2287  0.0903  0.0343 0.00000  3.631  7.392 27.616 22.885  0.0000  0.0000  0.0000
 1989 335    20    16     25  0.4666  0.0017  0.2767  0.1049  0.0460 0.00000  3.627  7.331 29.624 24.642  0.0000  0.0000  0.0000
 1989 336    21    17     28  0.4620  0.0020  0.2764  0.1003  0.0477 0.00000  3.606  7.281 29.183 24.882  0.0000  0.0000  0.0000
 1989 337    22    18     31  0.5129  0.0018  0.3191  0.1094  0.0414 0.00000  3.587  7.276 25.414 21.722  0.0000  0.0000  0.0000
 1989 338    23    19     36  0.7729  0.0017  0.4816  0.1752  0.0487 0.00000  3.605  7.309 24.120 19.640  0.0000  0.0000  0.0000
 1989 339    24    20     40  0.8311  0.0024  0.5048  0.1855  0.0705 0.00000  3.607  7.309 28.978 22.777  0.0000  0.0000  0.0000
 1989 340    25    21     46  0.8897  0.0031  0.5424  0.1943  0.0812 0.00000  3.591  7.303 27.998 23.984  0.0000  0.0000  0.0000
 1989 341    26    22     52  1.1049  0.0036  0.6771  0.2358  0.1024 0.00000  3.574  7.315 28.380 24.581  0.0000  0.0000  0.0000
 1989 342    27    23     60  1.3133  0.0041  0.7921  0.2921  0.1227 0.00000  3.575  7.314 29.154 24.746  0.0000  0.0000  0.0000
 1989 343    28    24     67  1.2022  0.0048  0.7201  0.2664  0.1197 0.00000  3.562  7.287 28.950 24.792  0.0000  0.0000  0.0000
 1989 344    29    25     77  1.8005  0.0054  1.0870  0.3896  0.1778 0.00000  3.557  7.308 30.584 25.710  0.0000  0.0000  0.0000
 1989 345    30    26     89  1.9970  0.0067  1.1967  0.4205  0.2196 0.00000  3.543  7.315 31.999 27.161  0.0000  0.0000  0.0000
 1989 346    31    27    102  2.3479  0.0078  1.3947  0.5076  0.2573 0.00000  3.541  7.312 31.940 27.210  0.0000  0.0000  0.0000
 1989 347    32    28    118  2.6640  0.0087  1.6086  0.5682  0.2702 0.00000  3.532  7.320 30.668 26.009  0.0000  0.0000  0.0000
 1989 348    33    29    136  3.0698  0.0100  1.8803  0.6475  0.2886 0.00000  3.520  7.334 28.875 25.041  0.0000  0.0000  0.0000
 1989 349    34    30    156  3.4629  0.0109  2.0969  0.7780  0.3116 0.00000  3.577  7.313 29.623 24.034  0.0000  0.0000  0.0000
 1989 350    35    31    177  3.7129  0.0141  2.2071  0.8094  0.4096 0.00000  3.608  7.273 31.777 26.868  0.0000  0.0000  0.0000
 1989 351    36    32    197  3.2884  0.0107  2.1808  0.7044  0.2139 0.00000  3.640  7.269 22.977 19.143  0.0000  0.0000  0.0000
 1989 352    37    33    225  4.5766  0.0102  2.8665  1.0736  0.2475 0.00000  3.673  7.297 23.072 17.340  0.0000  0.0000  0.0000
 1989 353    38    34    261  6.0174  0.0159  3.7335  1.3868  0.4163 0.00000  3.700  7.308 25.511 20.961  0.0000  0.0000  0.0000
 1989 354    39    35    303  6.9715  0.0175  4.3285  1.6075  0.4524 0.00000  3.722  7.323 24.785 20.163  0.0000  0.0000  0.0000
 1989 355    40    36    351  7.6046  0.0194  5.0230  1.6516  0.4723 0.00000  3.745  7.339 24.219 19.418  0.0000  0.0000  0.0000
 1989 356    41    37    408  8.9891  0.0000  5.6225  1.6950  0.6328 0.27415  4.888  8.355 26.753 20.698  0.0000  0.0000  0.0000
 1989 357    42    38    472 10.0485  0.0000  5.7446  1.6698  0.7812 0.99271  8.118 11.127 27.466 21.984  0.0000  0.0000  0.0000
 1989 358    43    39    543 10.9922  0.0000  6.0059  1.6739  1.0068 1.37477 11.618 14.103 29.465 23.984  0.0000  0.0000  0.0000
 1989 359    44    40    575  6.0376  0.1012  3.6532  1.2566  0.7233 0.02039 11.046 13.513 28.117 24.390  0.0000  0.0000  0.0000
 1989 360    45    41    645 11.0906  0.0000  6.0921  1.6565  1.1240 1.29051 11.997 17.392 29.117 24.853  0.0000  0.0000  0.0000
 1989 361    46    42    707 10.1835  0.0000  5.9223  1.6573  1.1011 0.67341 12.100 18.566 28.689 24.891  0.0000  0.0000  0.0000
 1989 362    47    43    784 13.7128  0.1614  8.0968  2.9286  1.4509 0.19072 11.294 17.560 29.448 25.543  0.0000  0.0000  0.0000
 1989 363    48    44    858 13.1244  0.1689  7.7051  2.8105  1.3732 0.23297 10.690 16.873 27.794 24.820  0.0000  0.0000  0.0000
 1989 364    49    45    949 15.7868  0.1686  9.3191  3.3806  1.4784 0.33701 10.165 16.375 26.840 23.722  0.0000  0.0000  0.0000
 1989 365    50    46   1064 18.7317  0.0000 11.3876  3.2989  1.7432 0.73166 10.045 16.786 28.159 23.751  0.0000  0.0000  0.0000
 1990 001    51    47   1206 21.4772  0.0000 11.5998  3.1152  1.7027 3.15577 11.418 21.210 27.503 21.339  0.0000  0.0000  0.0000
 1990 002    52    48   1350 22.4905  0.2574 14.4520  4.3162  1.9751 0.76325 10.901 20.490 27.835 22.567  0.0000  0.0000  0.0000
 1990 003    53    49   1509 24.8960  0.2831 15.9760  4.6984  2.2365 0.93734 10.486 19.980 28.120 22.815  0.0000  0.0000  0.0000
 1990 004    54    50   1669 26.4055  0.1614 15.8143  4.5231  2.9060 1.09452 10.286 19.875 31.190 25.276  0.0000  0.0000  0.0000
 1990 005    55    51   1839 27.8099  0.0000 15.8222  4.3268  3.2574 2.07379 10.587 20.997 31.609 26.017  0.0000  0.0000  0.0000
 1990 006    56    52   1952 20.7762  0.4449 11.5887  3.7107  2.8561 0.98592 10.563 21.188 31.852 26.117  0.0000  0.0000  0.0000
 1990 007    57    53   2108 28.2078  0.4796 15.7663  5.4458  3.6641 1.32418 10.340 20.946 32.330 26.810  0.0000  0.0000  0.0000
 1990 008    58    54   2239 24.5221  0.5123 13.5610  4.7430  3.1289 1.24331 10.181 20.781 29.433 25.526  0.0000  0.0000  0.0000
 1990 009    59    55   2416 28.3193  0.4690 17.6749  5.0555  2.8325 1.58791 10.084 20.770 27.235 22.539  0.0000  0.0000  0.0000
 1990 010    60    56   2563 29.7445  0.4805 16.7213  5.9211  2.8938 1.67535 10.015 20.748 27.408 21.853  0.0000  0.0000  0.0000
 1990 011    61    57   2758 33.0752  0.5650 19.4255  6.1131  3.6501 1.92206  9.974 20.848 29.186 23.846  0.0000  0.0000  0.0000
 1990 012    62    58   2948 34.1213  0.6554 19.1525  6.2126  4.4995 2.02123  9.945 20.953 31.894 26.051  0.0000  0.0000  0.0000
 1990 013    63    59   3075 24.5209  0.6978 13.5754  4.5285  3.5063 1.43417  9.909 20.948 29.232 24.824  0.0000  0.0000  0.0000
 1990 014    64    60   3258 35.3214  0.7704 18.5012  6.6457  4.9671 2.15026  9.912 21.091 31.567 26.728  0.0000  0.0000  0.0000
 1990 015    65    61   3409 30.0651  0.8133 15.9302  5.4811  4.7037 1.78202  9.906 21.157 32.073 26.733  0.0000  0.0000  0.0000
 1990 016    66    62   3579 33.8586  0.8444 17.5584  6.3658  4.9317 1.99541  9.921 21.275 31.351 26.226  0.0000  0.0000  0.0000
 1990 017    67    63   3683 20.3576  0.6030 11.5081  4.0411  2.2267 0.90689  9.911 21.258 21.617 19.037  0.0000  0.0000  0.0000
 1990 018    68    64   3862 32.7143  0.5398 17.6028  6.7835  2.5460 2.01954  9.985 21.517 22.571 17.518  0.0000  0.0000  0.0000
 1990 019    69    65   4077 37.4394  0.6328 21.0061  7.3093  3.2155 2.51387 10.089 21.847 25.409 18.636  0.0000  0.0000  0.0000
 1990 020    70    66   4268 37.4267  0.9356 19.7845  7.1606  4.7053 2.33686 10.150 22.038 28.663 23.611  0.0000  0.0000  0.0000
 1990 021    71    67   4449 36.7183  0.9837 18.9579  7.0769  4.9739 2.12145 10.192 22.172 29.928 24.016  0.0000  0.0000  0.0000
 1990 022    72    68   4629 37.5135  1.0808 19.0422  7.1434  5.6429 2.08797 10.224 22.278 31.309 25.362  0.0000  0.0000  0.0000
 1990 023    73    69   4790 33.9394  1.0321 17.4745  6.4602  5.2012 1.76899 10.248 22.345 31.696 24.172  0.0000  0.0000  0.0000
 1990 024    74    70   4892 25.5167  1.1946 13.3814  4.9821  4.5002 0.51469 10.177 22.116 27.363 24.426  0.0000  0.0000  0.0000
 1990 025    75    71   5060 38.0863  1.2804 18.8204  7.1177  6.5202 2.04269 10.205 22.197 32.535 26.696  0.0000  0.0000  0.0000
 1990 026    76    72   5195 37.9420  1.4014 19.0885  6.8955  6.8544 2.03896 10.235 22.260 32.494 27.336  6.6646 20.5000 29.3463
 1990 027    77    73   5332 37.6704  1.4717 17.5783  6.8457  8.2342 1.80851 10.227 22.250 35.550 30.034  6.8832 20.5000 27.9801
 1990 028    78    74   5408 27.1103  1.6087 13.1264  4.6448  7.4806 0.65027 10.132 21.966 35.122 30.574  6.9222 20.5000 27.7363
 1990 029    79    75   5521 35.0510  1.5979 15.8795  6.4366  8.4776 1.47489 10.086 21.865 35.677 30.771  6.9416 20.5000 27.6151
 1990 030    80    76   5606 30.7681  1.6488 14.6750  5.8096  7.3249 0.82326 10.004 21.622 34.030 29.017  6.8935 20.5000 27.9157
 1990 031    81    77   5678 29.2450  1.6672 13.9657  5.6262  7.2807 0.53854  9.896 21.310 34.182 29.063  6.8686 20.5000 28.0711
 1990 032    82    78   5748 31.8775  1.7252 14.9511  6.4832  7.3002 0.55945  9.792 20.996 32.687 28.606  6.8410 20.5000 28.2440
 1990 033    83    79   5816 37.1589  1.7324 16.8988  7.4342  8.3421 1.19695  9.739 20.838 34.170 29.552  6.8461 20.5000 28.2118
 1990 034    84    80   5868 25.9383  1.7259 12.3722  5.5821  6.4825 0.00000  9.584 20.378 31.707 27.698  6.8030 20.5000 28.4814
 1990 035    85    81   5914 26.3946  1.7128 12.6109  5.8424  6.4417 0.00000  9.432 19.917 31.273 27.444  6.7719 20.5000 28.6759
[...]
 2013 056   107   103   7806 27.4993  0.8938 13.0218  7.7096  4.5270 0.13272  8.635 15.073 24.296 20.090  6.4339 19.9063 31.3818
 2013 057   108   104   7876 20.8554  0.7548 10.4701  6.2740  2.9960 0.11967  8.583 14.878 20.713 16.329  6.4492 19.7069 31.4856
 2013 058   109   105   7950 21.8009  0.7503 10.6826  6.5226  3.2275 0.12480  8.527 14.683 22.421 16.685  6.4625 19.5379 31.5715
 2013 059   110   106   8027 23.1797  0.7845 11.0291  6.7954  3.6382 0.12671  8.460 14.473 24.049 17.709  6.4717 19.4233 31.6288
 2013 060   111   107   8098 24.1693  0.9841 10.8696  6.5326  4.9303 0.11363  8.350 14.181 26.697 21.641  6.4771 19.4218 31.5964
 2013 061   112   108   8118 13.2088  1.2924  6.1852  2.8118  4.7484 0.03508  8.157 13.732 25.810 23.318  6.4781 19.4365 31.5751
 2013 062   113   109   8155 14.5578  1.0071  7.0287  3.8196  3.4239 0.06086  8.011 13.393 21.965 19.154  6.4790 19.4074 31.5991
 2013 063   114   110   8198 14.0022  0.7686  6.9501  4.2352  2.4398 0.08496  7.908 13.150 19.321 15.515  6.4888 19.2873 31.6578
 2013 064   115   111   8242 13.8018  0.7104  6.7889  4.2868  2.3300 0.09190  7.812 12.929 19.795 14.816  6.5010 19.1519 31.7165
 2013 065   116   112   8294 16.7299  0.8281  7.8223  4.9011  3.1069 0.08108  7.686 12.655 22.971 17.282  6.5051 19.0853 31.7579
 2013 066   117   113   8347 18.3685  0.8671  8.0674  5.0670  3.9148 0.09217  7.551 12.367 25.461 19.774  6.5077 19.0693 31.7573
 2013 067   118   114   8378 14.2980  1.0179  6.1146  3.5327  4.2157 0.05911  7.370 12.000 26.297 21.607  6.5090 19.0766 31.7423
 2013 068   119   115   8435 16.2419  0.0000  5.5249  1.5886  5.0582 2.26524  7.779 13.115 27.025 23.970  6.4483 19.2217 31.9767
 2013 069   120   116   8212 13.8935  0.9218  6.3860  2.2910  4.2810 0.11276  7.564 12.294 25.491 22.153  6.3914 19.3522 32.2014
 2013 070   121   117   8052 12.2511  0.0000  4.1595  1.1972  3.4957 2.07635  7.924 12.986 25.163 20.017  6.3480 19.4380 32.3871
 2013 071   122   118   7884  5.3518  1.0153  2.4172  0.6973  2.9913 0.00000  7.597 12.152 24.345 19.839  6.3350 19.4619 32.4441
 2013 072   123   119   7766  5.2818  0.3028  2.4024  0.6931  1.9352 0.14583  7.527 11.805 19.921 15.381  6.3126 19.4797 32.5667
 2013 073   124   120   7655  3.3251  0.7257  1.5870  0.4593  1.9098 0.00000  7.246 11.176 19.569 16.024  6.3042 19.4813 32.6174
 2013 074   125   121   7564  3.2985  0.6828  1.3685  0.3966  2.1054 0.00000  6.960 10.591 20.258 17.351  6.2970 19.4876 32.6558
 2013 075   126   122   7484  2.3475  0.5976  0.9270  0.2743  1.8430 0.00000  6.694 10.075 19.756 16.214  6.2972 19.4788 32.6637
 2013 076   127   123   7417  1.6509  0.5154  0.5285  0.1516  1.5749 0.00000  6.448  9.626 19.859 14.405  6.2976 19.4703 32.6698
 2013 077   128   124   7356  1.0828  0.5380  0.0000  0.0000  2.0546 0.00000  6.171  9.174 20.992 17.983  6.2976 19.4703 32.6698
 2013 078   129   125   7305  0.6684  0.5064  0.0000  0.0000  2.0743 0.00000  5.903  8.753 20.836 18.359  6.2976 19.4703 32.6698
 2013 079   130   126   7262  0.5595  0.4811  0.0000  0.0000  2.1424 0.00000  5.641  8.357 20.998 18.876  6.2976 19.4703 32.6698
 2013 080   131   127   7225  0.7017  0.4474  0.0000  0.0000  2.0947 0.00000  5.393  7.992 21.575 18.570  6.2976 19.4703 32.6698

*DSSAT Cropping System Model Ver. 4.6.1.000 -release      NOV 14, 2016; 08:58:45
                                                                                
*RUN  26        : UYSB                      CRGRO046 UYSB1082    1              
 MODEL          : CRGRO046 - Soybean                                            
 EXPERIMENT     : UYSB1082 SN late to create DSS                                
 DATA PATH      :                                                               
 TREATMENT  1   : UYSB                      CRGRO046                            
  
@YEAR DOY   DAS   DAP   TWAD    PHAD    CMAD    CGRD    GRAD    MRAD    CHAD   CL%D   CS%D   TGNN   TGAV    GN%D    GL%D    GC%D
 2013 319     4     0      0  0.0000  0.0000  0.0000  0.0000  0.0000 0.00000  0.000  0.000 21.886 19.020  0.0000  0.0000  0.0000
 2013 320     5     1      0  0.0000  0.0000  0.0000  0.0000  0.0000 0.00000  0.000  0.000 21.360 17.134  0.0000  0.0000  0.0000
 2013 321     6     2      0  0.0000  0.0000  0.0000  0.0000  0.0000 0.00000  0.000  0.000 22.140 17.590  0.0000  0.0000  0.0000
 2013 322     7     3      0  0.0000  0.0000  0.0000  0.0000  0.0000 0.00000  0.000  0.000 28.856 23.303  0.0000  0.0000  0.0000
 2013 323     8     4      0  0.0000  0.0000  0.0000  0.0000  0.0000 0.00000  0.000  0.000 20.931 19.713  0.0000  0.0000  0.0000
 2013 324     9     5      0  0.0000  0.0000  0.0000  0.0000  0.0000 0.00000  0.000  0.000 22.950 20.478  0.0000  0.0000  0.0000
 2013 325    10     6      8  0.0000  0.0005  0.0003  0.0001  0.0000 0.00000  3.938  7.871 23.928 21.134  0.0000  0.0000  0.0000
 2013 326    11     7      9  0.1976  0.0005  0.1256  0.0425  0.0133 0.00000  3.890  7.791 23.893 20.740  0.0000  0.0000  0.0000
 2013 327    12     8     10  0.2303  0.0006  0.1466  0.0488  0.0160 0.00000  3.845  7.724 25.344 21.008  0.0000  0.0000  0.0000
 2013 328    13     9     12  0.2591  0.0008  0.1625  0.0536  0.0223 0.00000  3.797  7.652 28.225 23.566  0.0000  0.0000  0.0000
 2013 329    14    10     13  0.2450  0.0010  0.1513  0.0492  0.0255 0.00000  3.742  7.569 29.646 25.561  0.0000  0.0000  0.0000
 2013 330    15    11     14  0.1986  0.0011  0.1236  0.0394  0.0204 0.00000  3.688  7.485 26.912 24.045  0.0000  0.0000  0.0000
 2013 331    16    12     16  0.2814  0.0010  0.1797  0.0538  0.0234 0.00000  3.647  7.449 26.147 22.312  0.0000  0.0000  0.0000
 2013 332    17    13     18  0.3454  0.0008  0.2270  0.0662  0.0198 0.00000  3.627  7.458 22.254 18.169  0.0000  0.0000  0.0000
 2013 333    18    14     21  0.4102  0.0012  0.2504  0.0911  0.0297 0.00000  3.642  7.417 26.229 20.745  0.0000  0.0000  0.0000
 2013 334    19    15     24  0.4869  0.0014  0.2964  0.1092  0.0383 0.00000  3.646  7.379 26.551 22.178  0.0000  0.0000  0.0000
 2013 335    20    16     26  0.4523  0.0017  0.2773  0.0979  0.0383 0.00000  3.629  7.342 26.402 22.424  0.0000  0.0000  0.0000
 2013 336    21    17     30  0.6590  0.0021  0.4013  0.1398  0.0630 0.00000  3.614  7.333 29.383 25.082  0.0000  0.0000  0.0000
 2013 337    22    18     35  0.7075  0.0016  0.4490  0.1551  0.0422 0.00000  3.617  7.364 22.760 18.925  0.0000  0.0000  0.0000
 2013 338    23    19     40  0.8413  0.0022  0.5146  0.1907  0.0653 0.00000  3.626  7.365 28.685 21.445  0.0000  0.0000  0.0000
 2013 339    24    20     46  1.0352  0.0027  0.6457  0.2254  0.0771 0.00000  3.620  7.383 25.352 22.018  0.0000  0.0000  0.0000
 2013 340    25    21     52  0.9764  0.0023  0.6226  0.2154  0.0556 0.00000  3.618  7.406 22.025 18.082  0.0000  0.0000  0.0000
 2013 341    26    22     60  1.3080  0.0033  0.8227  0.2809  0.0951 0.00000  3.612  7.426 27.522 20.891  0.0000  0.0000  0.0000
 2013 342    27    23     68  1.3919  0.0047  0.8391  0.3007  0.1405 0.00000  3.601  7.399 31.592 25.140  0.0000  0.0000  0.0000
 2013 343    28    24     73  0.8851  0.0057  0.5212  0.1938  0.1028 0.00000  3.568  7.315 27.904 24.965  0.0000  0.0000  0.0000
 2013 344    29    25     84  1.7865  0.0047  1.1278  0.3864  0.1213 0.00000  3.566  7.353 23.692 20.717  0.0000  0.0000  0.0000
 2013 345    30    26     97  2.0278  0.0048  1.2895  0.4414  0.1233 0.00000  3.570  7.390 23.959 19.013  0.0000  0.0000  0.0000
 2013 346    31    27    111  2.3177  0.0065  1.4852  0.4827  0.1661 0.00000  3.577  7.406 25.947 20.965  0.0000  0.0000  0.0000
 2013 347    32    28    126  2.5834  0.0090  1.6191  0.5355  0.2362 0.00000  3.602  7.384 28.841 24.111  0.0000  0.0000  0.0000
 2013 348    33    29    143  2.9473  0.0107  1.8286  0.5959  0.2995 0.00000  3.613  7.364 30.962 25.480  0.0000  0.0000  0.0000
 2013 349    34    30    160  2.9772  0.0129  1.8439  0.5861  0.3334 0.00000  3.613  7.331 31.256 26.562  0.0000  0.0000  0.0000
 2013 350    35    31    179  3.4043  0.0144  2.0009  0.7360  0.3973 0.00000  3.638  7.274 32.858 27.089  0.0000  0.0000  0.0000
 2013 351    36    32    205  4.2925  0.0142  2.7582  0.8345  0.3976 0.00000  3.675  7.261 30.432 24.055  0.0000  0.0000  0.0000
 2013 352    37    33    234  4.7919  0.0000  2.9478  0.8819  0.4502 0.12057  4.668  8.160 29.378 24.470  0.0000  0.0000  0.0000
 2013 353    38    34    267  5.4396  0.0000  3.1401  0.9302  0.5487 0.37307  6.997 10.222 30.098 25.512  0.0000  0.0000  0.0000
 2013 354    39    35    311  6.9013  0.0000  3.6859  1.0243  0.6723 0.93291 11.659 14.309 29.511 25.498  0.0000  0.0000  0.0000
 2013 355    40    36    362  7.9182  0.0000  4.0663  1.1037  0.8221 1.24851 16.393 18.454 31.166 26.221  0.0000  0.0000  0.0000
 2013 356    41    37    412  8.7495  0.0879  5.2989  1.9585  0.8759 0.00000 14.461 16.654 29.624 25.647  0.0000  0.0000  0.0000
 2013 357    42    38    470 10.2014  0.0899  6.1182  2.2561  1.0481 0.00000 12.843 15.128 31.085 25.926  0.0000  0.0000  0.0000
 2013 358    43    39    539 11.7877  0.0943  7.3217  2.4729  1.2502 0.02150 11.500 13.902 32.072 26.340  0.0000  0.0000  0.0000
 2013 359    44    40    620 13.3548  0.0000  7.8193  2.3384  1.4873 0.59512 11.261 15.183 33.246 26.904  0.0000  0.0000  0.0000
 2013 360    45    41    711 14.7502  0.0000  7.4941  2.0697  2.0305 1.93186 12.601 20.271 36.458 30.152  0.0000  0.0000  0.0000
 2013 361    46    42    783 13.2865  0.1822  7.6330  2.8114  1.8379 0.14642 11.673 18.994 34.396 29.273  0.0000  0.0000  0.0000
 2013 362    47    43    872 15.9170  0.1843  9.2096  3.4049  1.8794 0.23166 10.861 17.948 32.162 27.217  0.0000  0.0000  0.0000
 2013 363    48    44    958 15.9547  0.2061  8.9939  3.3034  2.2664 0.28071 10.245 17.202 34.354 29.660  0.0000  0.0000  0.0000
 2013 364    49    45   1076 21.6342  0.2014 11.9520  4.4532  3.0603 0.43928  9.676 16.626 36.386 30.438  0.0000  0.0000  0.0000
 2013 365    50    46   1125 11.1410  0.2093  3.6686  3.4106  1.3732 0.15893  9.174 16.210 28.099 24.336  0.0000  0.0000  0.0000
 2014 001    51    47   1255 23.7824  0.2293 13.6399  4.8369  2.9053 0.66294  8.922 16.051 33.343 27.824  0.0000  0.0000  0.0000
 2014 002    52    48   1395 23.5381  0.2608 14.3692  4.3733  2.9201 0.79128  8.709 16.007 31.996 27.695  0.0000  0.0000  0.0000
 2014 003    53    49   1571 26.9724  0.0000 15.1206  4.0497  2.1777 3.30463  9.789 19.389 25.549 21.929  0.0000  0.0000  0.0000
 2014 004    54    50   1772 29.7652  0.0000 15.2306  3.8691  2.4008 5.62489 11.599 24.573 28.015 21.097  0.0000  0.0000  0.0000
 2014 005    55    51   1961 30.1905  0.4334 18.9201  5.1773  3.1672 1.43953 11.456 24.449 31.319 24.149  0.0000  0.0000  0.0000
 2014 006    56    52   2147 31.1086  0.5443 18.8903  5.5338  4.0694 1.47027 11.094 23.778 33.079 27.416  0.0000  0.0000  0.0000
 2014 007    57    53   2308 30.1239  0.5713 16.3298  5.8628  4.2103 1.40714 10.822 23.298 33.862 27.625  0.0000  0.0000  0.0000
 2014 008    58    54   2476 30.5943  0.5890 17.0235  6.0800  3.4876 1.56051 10.627 22.963 28.693 24.678  0.0000  0.0000  0.0000
 2014 009    59    55   2669 33.5183  0.0988 19.1007  5.3743  4.4322 1.91122 10.681 23.150 31.329 26.884  0.0000  0.0000  0.0000
 2014 010    60    56   2779 21.1529  0.6352 12.0045  3.9851  2.6523 1.13440 10.581 22.938 25.177 22.990  0.0000  0.0000  0.0000
 2014 011    61    57   2883 20.2527  0.6366 11.4544  3.7922  2.5610 1.07220 10.504 22.768 24.968 22.494  0.0000  0.0000  0.0000
 2014 012    62    58   3032 25.4505  0.5222 15.2564  4.8116  2.3029 1.40630 10.469 22.729 23.808 19.328  0.0000  0.0000  0.0000
 2014 013    63    59   3182 28.2637  0.6880 15.6127  5.4574  3.1737 1.63960 10.437 22.691 25.766 22.505  0.0000  0.0000  0.0000
 2014 014    64    60   3320 27.6322  0.8214 14.7987  5.2100  3.7467 1.58342 10.398 22.623 27.076 24.639  0.0000  0.0000  0.0000
 2014 015    65    61   3552 39.3642  0.8071 23.2577  6.9349  4.4942 2.61584 10.436 22.780 28.354 24.017  0.0000  0.0000  0.0000
 2014 016    66    62   3773 39.9166  0.8991 22.4287  7.1938  5.2832 2.44128 10.460 22.888 31.028 25.581  0.0000  0.0000  0.0000
 2014 017    67    63   3974 40.3220  1.0117 20.7084  7.5797  5.9821 2.39123 10.473 22.966 32.075 27.022  0.0000  0.0000  0.0000
 2014 018    68    64   4167 40.8088  1.1333 20.0159  7.4716  7.2668 2.38387 10.475 23.019 34.394 29.664  0.0000  0.0000  0.0000
 2014 019    69    65   4338 37.2644  1.1918 18.5730  6.6901  7.0192 2.06336 10.473 23.022 34.204 29.510  0.0000  0.0000  0.0000
 2014 020    70    66   4507 37.7235  1.2403 18.5041  6.8413  7.2236 1.99303 10.468 23.016 34.214 29.556  0.0000  0.0000  0.0000
 2014 021    71    67   4692 39.2448  1.2911 20.1170  7.0005  7.2147 2.18443 10.484 23.054 33.320 28.949  0.0000  0.0000  0.0000
 2014 022    72    68   4851 36.4008  1.2763 18.0328  6.9954  6.2781 1.52780 10.460 22.982 31.344 27.045  0.0000  0.0000  0.0000
 2014 023    73    69   5032 41.3148  1.4592 20.1262  7.2139  8.5532 2.31274 10.488 23.036 34.548 30.786  0.0000  0.0000  0.0000
 2014 024    74    70   5091 22.9413  0.4015 11.6445  4.2735  4.3760 0.20749 10.539 23.037 28.309 23.938  0.0000  0.0000  0.0000
 2014 025    75    71   5153 17.1231  0.9477  9.5086  3.5996  2.5792 0.00000 10.471 22.785 21.777 18.625  6.1992 18.5945 34.1605
 2014 026    76    72   5321 37.7551  1.0470 20.4146  8.0247  3.7753 1.33889 10.484 22.791 22.283 19.668  6.1884 18.9554 33.8671
 2014 027    77    73   5356 20.5034  0.5656 10.4328  3.7457  4.4304 0.23435 10.519 22.756 26.967 24.316  6.2844 19.6643 32.5583
 2014 028    78    74   5462 36.8449  1.5587 16.8233  8.2037  6.5287 0.56180 10.426 22.464 30.460 26.521  6.4189 20.0292 31.3525
 2014 029    79    75   5522 21.1075  1.4010 11.2983  4.4596  4.0775 0.00000 10.307 22.087 24.353 22.956  6.3686 20.1901 31.5060
 2014 030    80    76   5569 20.0277  1.4693 10.4425  4.2096  4.3033 0.00000 10.181 21.688 25.367 23.755  6.3626 20.2798 31.4537
 2014 031    81    77   5619 23.5570  1.4130 12.0209  5.2560  4.2598 0.00000 10.062 21.304 24.264 22.903  6.3423 20.3233 31.5373
 2014 032    82    78   5652 29.1391  1.4370 14.5084  6.7591  4.7443 0.00000  9.939 20.909 25.423 23.203  6.3329 20.3607 31.5589
 2014 033    83    79   5742 35.7597  1.5192 16.9506  8.6145  5.9145 0.00000  9.803 20.481 28.410 24.902  6.3627 20.3964 31.3368
 2014 034    84    80   5804 27.3323  1.4119 13.5459  6.6610  4.6196 0.00000  9.680 20.083 25.490 22.949  6.3438 20.4121 31.4394
 2014 035    85    81   5825 19.0193  1.4767  9.5198  4.4863  4.5575 0.00000  9.550 19.662 27.316 24.095  6.3509 20.4305 31.3763
 2014 036    86    82   5921 38.2412  1.6031 17.2092  8.8423  8.1123 0.19630  9.428 19.256 33.368 28.788  6.4253 20.4422 30.8998
 2014 037    87    83   5997 32.3520  1.5584 15.3240  7.9015  6.3094 0.00000  9.289 18.799 28.738 26.090  6.4478 20.4523 30.7489
 2014 038    88    84   6090 36.5205  1.5848 16.2749  8.5074  8.4244 0.04216  9.141 18.335 34.043 29.428  6.5052 20.4591 30.3833
 2014 039    89    85   6177 36.0569  1.5766 16.0030  8.4869  8.4726 0.03401  8.991 17.867 33.981 29.474  6.5525 20.4646 30.0820
 2014 040    90    86   6262 32.0884  1.5277 14.7275  8.2884  6.6283 0.00000  8.846 17.400 28.986 26.483  6.5582 20.4701 30.0415
 2014 041    91    87   6326 28.2484  1.1962 13.1407  7.3410  6.1814 0.09236  8.772 17.080 28.143 26.033  6.5932 20.3995 29.8933
 2014 042    92    88   6404 32.2163  1.4810 14.0621  7.9840  8.0789 0.03941  8.628 16.622 33.960 28.954  6.6185 20.4113 29.7233
 2014 043    93    89   6431 16.2223  1.2072  8.7139  3.5710  4.4494 0.03624  8.533 16.255 24.561 23.489  6.6082 20.3939 29.8050
 2014 044    94    90   6461 14.0877  1.0302  8.0587  3.2687  3.2642 0.03189  8.455 15.938 21.413 19.984  6.5899 20.3156 29.9974
 2014 045    95    91   6562 30.9757  0.6231 14.9724  8.9088  4.0901 0.15438  8.470 15.821 22.540 19.968  6.5870 20.1408 30.1903
 2014 046    96    92   6648 26.1814  0.7360 12.8906  7.2907  3.9632 0.12018  8.456 15.644 23.538 20.001  6.5819 20.0256 30.3377
 2014 047    97    93   6738 31.2643  0.7058 14.6698  8.7356  4.8378 0.15072  8.453 15.489 25.470 21.541  6.5826 19.9683 30.3903
 2014 048    98    94   6810 30.1890  0.7532 13.9979  8.3187  5.0627 0.14374  8.435 15.309 26.165 22.236  6.5857 19.9366 30.4029
 2014 049    99    95   6894 29.8451  0.7811 13.3629  8.0794  5.7124 0.14521  8.404 15.111 28.757 23.865  6.5979 19.9177 30.3452
 2014 050   100    96   6955 23.1211  0.9306 10.6992  5.9908  5.0098 0.09894  8.327 14.826 26.683 23.542  6.6020 19.9107 30.3269
 2014 051   101    97   7028 24.5501  0.8369 11.2725  6.6074  4.7240 0.11265  8.262 14.577 25.164 22.701  6.6039 19.8977 30.3276
 2014 052   102    98   7107 26.4849  0.8046 11.6363  7.1589  5.3586 0.13042  8.198 14.345 28.052 23.913  6.6130 19.8843 30.2845
 2014 053   103    99   7174 24.5236  0.8666 10.5315  6.4582  5.6503 0.11985  8.112 14.077 28.827 25.117  6.6254 19.8727 30.2186
 2014 054   104   100   7230 21.2352  0.9028  9.3161  5.5406  4.9571 0.09775  8.003 13.776 26.762 24.087  6.6308 19.8659 30.1916
 2014 055   105   101   7299 23.7917  0.8037 10.1844  6.4326  5.0822 0.12056  7.912 13.522 27.353 23.966  6.6379 19.8548 30.1585
 2014 056   106   102   7314  8.4669  0.9101  4.4428  1.9952  2.5578 0.02462  7.760 13.164 20.251 18.504  6.6340 19.8247 30.2126
 2014 057   107   103   7331  8.7616  0.8623  4.4898  2.1601  2.4837 0.03005  7.612 12.823 20.418 18.137  6.6313 19.7889 30.2658
 2014 058   108   104   7392 18.7653  0.6317  8.5036  5.4795  3.0925 0.10340  7.529 12.618 22.291 18.799  6.6318 19.7272 30.3240
 2014 059   109   105   7445 17.6586  0.7093  7.8411  4.9624  3.3789 0.08960  7.420 12.368 23.501 20.046  6.6311 19.6971 30.3588
 2014 060   110   106   7503 18.4696  0.6557  8.1054  5.2931  3.3460 0.09952  7.320 12.144 23.885 19.719  6.6312 19.6607 30.3942
 2014 061   111   107   7554 16.9827  0.6734  7.4211  4.8286  3.2478 0.09057  7.207 11.904 23.794 19.664  6.6313 19.6284 30.4258
 2014 062   112   108   7579 10.8348  0.8120  4.8121  2.7846  2.9575 0.04692  7.046 11.573 22.078 19.978  6.6299 19.6142 30.4489
 2014 063   113   109   7618 14.8542  0.7586  6.2084  3.9611  3.6165 0.07257  6.899 11.276 24.118 21.663  6.6303 19.6079 30.4529
 2014 064   114   110   7658 15.1685  0.7330  6.2215  4.0566  3.7094 0.07567  6.753 10.990 25.805 21.750  6.6310 19.6016 30.4544
 2014 065   115   111   7722 14.8147  0.0000  3.9077  1.1226  4.0726 4.06814  7.542 13.302 27.303 23.037  6.5854 19.6978 30.6436
 2014 066   116   112   7538 12.2805  0.0000  3.8938  1.1188  2.9477 2.94340  8.065 14.407 22.993 19.616  6.5414 19.7733 30.8430
 2014 067   117   113   7382  8.8856  0.0000  3.0801  0.8855  2.4805 1.51087  8.363 14.869 22.516 18.536  6.5078 19.8243 31.0019
 2014 068   118   114   7255  8.0818  0.0000  2.7166  0.7814  2.8735 0.89550  8.559 15.078 25.169 20.658  6.4791 19.8780 31.1277
 2014 069   119   115   7144  5.8334  0.6127  2.4582  0.8197  2.4318 0.10785  8.362 14.502 22.668 19.721  6.4562 19.9166 31.2322
 2014 070   120   116   7051  4.1808  0.6603  1.8041  0.5916  2.0046 0.05018  8.109 13.891 22.744 17.775  6.4401 19.9365 31.3131
 2014 071   121   117   6962  3.1899  0.7561  1.2630  0.6048  1.9788 0.00000  7.782 13.203 23.103 18.064  6.4392 19.9298 31.3249
 2014 072   122   118   6883  2.5869  0.7542  0.6868  0.1970  2.4824 0.00000  7.434 12.528 26.126 21.161  6.4387 19.9300 31.3279
 2014 073   123   119   6812  1.7683  0.7485  0.0000  0.0000  3.0691 0.00000  7.058 11.865 28.574 24.603  6.4387 19.9300 31.3279
 2014 074   124   120   6754  1.4908  0.6462  0.0000  0.0000  2.4385 0.00000  6.720 11.283 25.581 21.860  6.4387 19.9300 31.3279
 2014 075   125   121   6705  0.4916  0.5476  0.0000  0.0000  1.7846 0.00000  6.426 10.782 20.914 18.788  6.4387 19.9300 31.3279
 2014 076   126   122   6663  0.7877  0.5611  0.0000  0.0000  2.3501 0.00000  6.116 10.277 25.383 21.912  6.4387 19.9300 31.3279
 2014 077   127   123   6628  0.5474  0.4699  0.0000  0.0000  1.6690 0.00000  5.852  9.848 21.175 18.131  6.4387 19.9300 31.3279
>>>>>>> origin/master
