*PLANT C OUTPUT FILE

<<<<<<< HEAD
*DSSAT Cropping System Model Ver. 4.6.1.000 -release      OCT 19, 2016; 11:42:41
                                                                                
*RUN   1        : UYSB                      CRGRO046 UYSB0923    1              
 MODEL          : CRGRO046 - Soybean                                            
 EXPERIMENT     : UYSB0923 SN late to create DSS                                
=======
*DSSAT Cropping System Model Ver. 4.6.1.000 -release      OCT 19, 2016; 11:08:31
                                                                                
*RUN   1        : UYSB                      CRGRO046 UYSB0908    1              
 MODEL          : CRGRO046 - Soybean                                            
 EXPERIMENT     : UYSB0908 SN late to create DSS                                
>>>>>>> origin/master
 DATA PATH      :                                                               
 TREATMENT  1   : UYSB                      CRGRO046                            
  
@YEAR DOY   DAS   DAP   TWAD    PHAD    CMAD    CGRD    GRAD    MRAD    CHAD   CL%D   CS%D   TGNN   TGAV    GN%D    GL%D    GC%D
<<<<<<< HEAD
 1990 293     4     0      0  0.0000  0.0000  0.0000  0.0000  0.0000 0.00000  0.000  0.000 22.494 19.640  0.0000  0.0000  0.0000
 1990 294     5     1      0  0.0000  0.0000  0.0000  0.0000  0.0000 0.00000  0.000  0.000 22.528 19.031  0.0000  0.0000  0.0000
 1990 295     6     2      0  0.0000  0.0000  0.0000  0.0000  0.0000 0.00000  0.000  0.000 23.049 18.872  0.0000  0.0000  0.0000
 1990 296     7     3      0  0.0000  0.0000  0.0000  0.0000  0.0000 0.00000  0.000  0.000 23.736 19.272  0.0000  0.0000  0.0000
 1990 297     8     4      0  0.0000  0.0000  0.0000  0.0000  0.0000 0.00000  0.000  0.000 20.951 17.952  0.0000  0.0000  0.0000
 1990 298     9     5      0  0.0000  0.0000  0.0000  0.0000  0.0000 0.00000  0.000  0.000 22.789 18.181  0.0000  0.0000  0.0000
 1990 299    10     6      8  0.0000  0.0006  0.0004  0.0002  0.0000 0.00000  3.936  7.866 25.505 21.647  0.0000  0.0000  0.0000
 1990 300    11     7      8  0.1535  0.0006  0.0950  0.0328  0.0129 0.00000  3.879  7.760 26.637 22.599  0.0000  0.0000  0.0000
 1990 301    12     8      9  0.1003  0.0006  0.0623  0.0213  0.0089 0.00000  3.827  7.665 23.023 21.128  0.0000  0.0000  0.0000
 1990 302    13     9     10  0.1429  0.0007  0.0882  0.0296  0.0142 0.00000  3.770  7.570 26.377 23.874  0.0000  0.0000  0.0000
 1990 303    14    10     11  0.2570  0.0008  0.1623  0.0528  0.0213 0.00000  3.727  7.533 27.211 23.314  0.0000  0.0000  0.0000
 1990 304    15    11     13  0.2643  0.0007  0.1718  0.0538  0.0163 0.00000  3.698  7.524 22.125 19.479  0.0000  0.0000  0.0000
 1990 305    16    12     15  0.2820  0.0008  0.1829  0.0563  0.0192 0.00000  3.666  7.503 23.028 20.382  0.0000  0.0000  0.0000
 1990 306    17    13     17  0.2860  0.0009  0.1845  0.0563  0.0211 0.00000  3.633  7.474 25.166 20.624  0.0000  0.0000  0.0000
 1990 307    18    14     18  0.2155  0.0013  0.1335  0.0408  0.0241 0.00000  3.582  7.389 27.049 24.438  0.0000  0.0000  0.0000
 1990 308    19    15     20  0.2657  0.0008  0.1854  0.0574  0.0147 0.00000  3.635  7.359 20.564 16.485  0.0000  0.0000  0.0000
 1990 309    20    16     21  0.2546  0.0005  0.1424  0.0681  0.0102 0.00000  3.640  7.346 17.197 12.688  0.0000  0.0000  0.0000
 1990 310    21    17     23  0.2711  0.0008  0.1639  0.0650  0.0144 0.00000  3.641  7.323 19.573 15.494  0.0000  0.0000  0.0000
 1990 311    22    18     25  0.4402  0.0012  0.2750  0.0970  0.0265 0.00000  3.639  7.324 22.077 18.498  0.0000  0.0000  0.0000
 1990 312    23    19     26  0.1750  0.0009  0.1054  0.0419  0.0114 0.00000  3.632  7.284 17.393 14.851  0.0000  0.0000  0.0000
 1990 313    24    20     29  0.4205  0.0014  0.2653  0.0883  0.0272 0.00000  3.617  7.287 21.281 18.704  0.0000  0.0000  0.0000
 1990 314    25    21     32  0.5958  0.0016  0.3789  0.1235  0.0379 0.00000  3.606  7.320 23.234 19.260  0.0000  0.0000  0.0000
 1990 315    26    22     37  0.7291  0.0021  0.4492  0.1595  0.0533 0.00000  3.606  7.322 25.354 21.164  0.0000  0.0000  0.0000
 1990 316    27    23     40  0.5331  0.0021  0.3309  0.1154  0.0386 0.00000  3.592  7.304 23.140 19.416  0.0000  0.0000  0.0000
 1990 317    28    24     46  1.0052  0.0032  0.5997  0.2099  0.1095 0.00000  3.580  7.306 32.604 26.731  0.0000  0.0000  0.0000
 1990 318    29    25     51  0.8642  0.0039  0.5143  0.1801  0.1017 0.00000  3.549  7.275 31.297 26.927  0.0000  0.0000  0.0000
 1990 319    30    26     54  0.5977  0.0031  0.3649  0.1349  0.0497 0.00000  3.532  7.240 22.378 20.265  0.0000  0.0000  0.0000
 1990 320    31    27     60  0.9461  0.0025  0.6064  0.2109  0.0523 0.00000  3.569  7.263 20.724 17.178  0.0000  0.0000  0.0000
 1990 321    32    28     69  1.5418  0.0030  0.9639  0.3452  0.0847 0.00000  3.583  7.334 23.771 17.753  0.0000  0.0000  0.0000
 1990 322    33    29     80  1.8125  0.0051  1.1177  0.3825  0.1497 0.00000  3.577  7.357 27.874 23.145  0.0000  0.0000  0.0000
 1990 323    34    30     92  2.0218  0.0072  1.2072  0.4091  0.2293 0.00000  3.556  7.345 31.799 27.643  0.0000  0.0000  0.0000
 1990 324    35    31    100  1.4082  0.0077  0.8430  0.2936  0.1487 0.00000  3.528  7.288 27.050 24.578  0.0000  0.0000  0.0000
 1990 325    36    32    116  2.7366  0.0080  1.6882  0.5735  0.2312 0.00000  3.526  7.322 27.340 23.793  0.0000  0.0000  0.0000
 1990 326    37    33    134  2.9545  0.0083  1.8521  0.6294  0.2197 0.00000  3.522  7.355 26.259 21.708  0.0000  0.0000  0.0000
 1990 327    38    34    155  3.3294  0.0095  2.0963  0.7019  0.2424 0.00000  3.517  7.380 26.284 21.268  0.0000  0.0000  0.0000
 1990 328    39    35    174  3.3746  0.0123  2.0224  0.7847  0.2837 0.00000  3.541  7.339 27.075 22.810  0.0000  0.0000  0.0000
 1990 329    40    36    194  3.4814  0.0146  2.0701  0.8049  0.3213 0.00000  3.547  7.291 27.701 23.759  0.0000  0.0000  0.0000
 1990 330    41    37    220  4.3794  0.0131  2.7379  0.9929  0.2972 0.00000  3.597  7.284 23.662 20.401  0.0000  0.0000  0.0000
 1990 331    42    38    245  4.2341  0.0096  2.5880  1.0219  0.1976 0.00000  3.615  7.302 19.679 15.665  0.0000  0.0000  0.0000
 1990 332    43    39    278  5.4548  0.0123  3.3631  1.2725  0.2854 0.01391  3.673  7.448 22.485 16.894  0.0000  0.0000  0.0000
 1990 333    44    40    321  7.0495  0.0184  4.2724  1.6111  0.4538 0.03841  3.772  7.730 25.083 19.743  0.0000  0.0000  0.0000
 1990 334    45    41    352  5.3456  0.0240  3.1705  1.2143  0.4218 0.04541  3.842  7.959 25.192 20.927  0.0000  0.0000  0.0000
 1990 335    46    42    399  7.8736  0.0263  4.6809  1.8472  0.5524 0.09180  3.986  8.404 24.821 20.628  0.0000  0.0000  0.0000
 1990 336    47    43    423  4.2390  0.0271  2.4626  0.9980  0.3312 0.05987  4.043  8.604 22.233 18.864  0.0000  0.0000  0.0000
 1990 337    48    44    477  8.9766  0.0253  5.3681  2.1379  0.4744 0.15269  4.236  9.180 21.353 17.230  0.0000  0.0000  0.0000
 1990 338    49    45    545 11.4049  0.0364  6.6715  2.6607  0.7371 0.22209  4.453  9.830 25.575 19.374  0.0000  0.0000  0.0000
 1990 339    50    46    597  9.3378  0.0650  5.0814  2.1015  1.0945 0.20277  4.574 10.232 30.689 26.388  0.0000  0.0000  0.0000
 1990 340    51    47    658 10.2961  0.0589  6.5515  2.0540  0.8343 0.29591  4.807 10.828 24.514 21.611  0.0000  0.0000  0.0000
 1990 341    52    48    753 14.6507  0.0000  6.7692  1.6395  1.0204 3.90229  8.625 21.463 23.968 20.670  0.0000  0.0000  0.0000
 1990 342    53    49    835 14.0305  0.1121  7.5834  3.3448  0.8827 0.42677  8.350 20.848 23.261 18.601  0.0000  0.0000  0.0000
 1990 343    54    50    852  5.8699  0.1051  0.8980  2.1734  0.4666 0.05437  8.091 20.505 18.965 16.994  0.0000  0.0000  0.0000
 1990 344    55    51    870  6.3178  0.1130  3.7816  1.2901  0.5203 0.24588  8.228 20.427 19.019 17.729  0.0000  0.0000  0.0000
 1990 345    56    52    962 15.7168  0.1400  8.6116  3.5367  1.1024 0.60865  8.127 20.151 23.626 19.934  0.0000  0.0000  0.0000
 1990 346    57    53   1011  9.6072  0.1114  4.8697  2.3040  0.6202 0.36970  8.096 20.025 20.467 16.345  0.0000  0.0000  0.0000
 1990 347    58    54   1086 14.2374  0.1533  7.4945  3.2330  1.0234 0.60946  8.105 19.951 22.707 19.231  0.0000  0.0000  0.0000
 1990 348    59    55   1169 15.1636  0.1246  8.1430  3.5111  0.8372 0.69112  8.150 19.982 20.355 16.198  0.0000  0.0000  0.0000
 1990 349    60    56   1289 21.3659  0.1803 11.6373  4.8586  1.4668 1.04711  8.229 20.089 25.117 19.241  0.0000  0.0000  0.0000
 1990 350    61    57   1406 21.9302  0.2432 11.4492  5.0506  1.9362 1.09411  8.297 20.187 28.004 22.092  0.0000  0.0000  0.0000
 1990 351    62    58   1479 15.4700  0.3056  7.5872  3.5825  1.8430 0.75678  8.306 20.153 28.491 24.155  0.0000  0.0000  0.0000
 1990 352    63    59   1619 23.3425  0.2796 14.4319  4.3588  1.9386 1.51683  8.532 20.498 24.496 21.522  0.0000  0.0000  0.0000
 1990 353    64    60   1757 25.3770  0.2830 12.5468  6.0074  1.9036 1.38304  8.569 20.686 24.111 20.098  0.0000  0.0000  0.0000
 1990 354    65    61   1899 26.9107  0.3249 13.4804  6.1123  2.1567 1.55030  8.673 20.936 25.358 20.665  0.0000  0.0000  0.0000
 1990 355    66    62   2022 25.2872  0.4099 12.1109  5.9914  2.5706 1.43883  8.764 21.111 27.952 22.972  0.0000  0.0000  0.0000
 1990 356    67    63   2077 14.1584  0.4339  8.1817  2.5730  1.8167 0.92410  8.897 21.196 24.809 22.409  0.0000  0.0000  0.0000
 1990 357    68    64   2200 22.7187  0.4712 12.3129  4.4274  2.5114 1.51731  8.997 21.393 26.991 23.193  0.0000  0.0000  0.0000
 1990 358    69    65   2293 17.1945  0.4070 10.3800  2.9545  1.7242 1.20419  9.096 21.561 23.216 20.028  0.0000  0.0000  0.0000
 1990 359    70    66   2454 27.7680  0.4043 15.4686  5.2271  2.1780 2.07027  9.281 21.971 23.971 19.313  0.0000  0.0000  0.0000
 1990 360    71    67   2623 30.6262  0.5656 16.3196  5.7707  3.3470 2.28713  9.438 22.327 29.171 23.438  0.0000  0.0000  0.0000
 1990 361    72    68   2803 31.2541  0.6665 17.8038  5.5220  3.8083 2.55473  9.628 22.710 29.703 24.866  0.0000  0.0000  0.0000
 1990 362    73    69   2951 24.5309  0.4348 14.3836  4.7313  1.7913 1.97555  9.777 23.027 19.974 17.215  0.0000  0.0000  0.0000
 1990 363    74    70   3104 24.4544  0.4299 14.6544  4.4831  1.7862 2.11640  9.933 23.367 21.448 16.467  0.0000  0.0000  0.0000
 1990 364    75    71   3303 31.6180  0.0000 15.4814  4.5032  2.7594 5.84808 10.885 25.801 25.093 19.431  0.0000  0.0000  0.0000
 1990 365    76    72   3501 32.6914  0.0000 15.8455  4.5355  3.5832 5.70689 11.738 27.891 27.452 22.220  0.0000  0.0000  0.0000
 1991 001    77    73   3662 29.1900  0.1060 15.5070  4.5218  4.1055 2.58451 11.990 28.341 29.664 24.467  0.0000  0.0000  0.0000
 1991 002    78    74   3818 29.2979  0.6492 15.8855  4.6500  4.2216 2.51828 12.141 28.557 28.010 24.821  0.0000  0.0000  0.0000
 1991 003    79    75   3983 31.0291  0.0000 16.1226  4.8186  4.0203 3.15642 12.506 29.280 27.535 23.341  0.0000  0.0000  0.0000
 1991 004    80    76   4170 33.4424  1.1456 19.3580  5.9112  3.6603 2.91461 12.571 29.301 26.564 21.116  6.1921 20.0154 32.7840
 1991 005    81    77   4354 33.6092  1.2291 19.3604  6.0080  3.7347 2.86617 12.626 29.308 26.269 21.108  6.1919 20.0133 32.7870
 1991 006    82    78   4528 33.7073  1.3327 18.9766  6.0827  4.0909 2.81684 12.670 29.297 27.891 21.726  6.2027 20.1182 32.6149
 1991 007    83    79   4670 32.9792  1.6211 17.3382  5.9987  5.1423 2.58585 12.675 29.197 30.344 24.860  6.3146 20.2942 31.7394
 1991 008    84    80   4812 33.1477  1.8091 17.4056  5.8399  6.0144 2.42248 12.657 29.045 32.282 26.905  6.4487 20.3827 30.8127
 1991 009    85    81   4854 16.6742  1.0413  9.0798  3.2174  3.4377 0.17910 12.635 28.861 23.896 22.820  6.3802 20.4083 31.2154
 1991 010    86    82   4961 31.9564  1.8512 16.5337  6.3326  5.2657 1.74338 12.587 28.639 29.235 25.077  6.4073 20.4376 31.0169
 1991 011    87    83   5059 30.2815  1.6676 15.4543  6.4733  4.1295 1.46730 12.547 28.440 26.192 21.927  6.3470 20.3849 31.4465
 1991 012    88    84   5203 32.5476  1.5142 16.5052  7.2226  3.6494 1.71501 12.545 28.331 24.586 19.783  6.2974 20.0893 32.0516
 1991 013    89    85   5274 26.0321  1.5953 13.8868  5.7049  3.4878 0.75377 12.471 28.055 25.088 20.035  6.2702 19.9594 32.3517
 1991 014    90    86   5396 32.7522  1.7428 16.9301  7.1308  4.2685 1.30153 12.417 27.831 26.180 21.378  6.2540 19.9943 32.4182
 1991 015    91    87   5499 32.3423  1.8636 16.1428  7.0119  4.9979 1.24066 12.346 27.571 29.306 22.998  6.2604 20.0880 32.2848
 1991 016    92    88   5591 23.4996  1.4904 13.0186  5.6252  2.7890 0.00000 12.235 27.204 21.205 17.801  6.2555 19.6839 32.7189
 1991 017    93    89   5683 26.2348  1.3287 13.8091  6.0899  2.6073 0.99955 12.207 27.054 22.038 15.838  6.2724 19.1909 33.1069
 1991 018    94    90   5800 32.2480  1.6923 17.4614  7.0764  3.8754 1.15756 12.151 26.839 25.415 19.431  6.2588 19.1858 33.1964
 1991 019    95    91   5907 30.7199  1.8317 15.9189  6.9674  4.3323 0.77818 12.056 26.525 27.160 20.781  6.2480 19.2868 33.1633
 1991 020    96    92   5982 27.2106  1.9100 14.3497  6.0107  4.7029 0.17836 11.913 26.084 29.370 21.989  6.2450 19.4184 33.0504
 1991 021    97    93   5977 16.9859  1.9399  9.8707  3.6297  3.6415 0.00000 11.755 25.600 23.357 21.422  6.2388 19.5198 32.9880
 1991 022    98    94   6025 31.4956  1.9816 15.8105  7.3266  4.8521 0.24719 11.605 25.143 27.051 22.250  6.2387 19.6334 32.8746
 1991 023    99    95   6068 28.5551  2.0333 14.8398  6.4057  4.9895 0.00000 11.428 24.615 27.499 23.092  6.2464 19.7521 32.7081
 1991 024   100    96   6063 14.0797  1.8856  8.0570  2.9480  3.5234 0.00000 11.266 24.119 23.207 21.416  6.2400 19.8049 32.6953
 1991 025   101    97   6128 29.0686  1.8779 14.2253  7.3531  4.4703 0.00000 11.108 23.618 25.224 21.678  6.2362 19.8579 32.6660
 1991 026   102    98   6202 29.4447  1.7471 15.2629  7.3267  4.0559 0.00000 10.962 23.147 24.659 20.182  6.2292 19.8264 32.7412
 1991 027   103    99   6266 28.7867  1.6535 15.1835  7.3134  3.7029 0.00000 10.822 22.696 23.699 19.079  6.2245 19.7271 32.8696
 1991 028   104   100   6316 29.3750  1.7987 15.0639  7.2670  4.5658 0.00000 10.661 22.196 26.686 21.279  6.2215 19.7651 32.8505
 1991 029   105   101   6337 18.7616  1.7364 10.1886  4.6419  3.6978 0.00000 10.504 21.706 23.923 20.664  6.2171 19.7721 32.8711
 1991 030   106   102   6363 24.1539  1.6226 12.7046  6.3405  3.5536 0.00000 10.360 21.242 21.857 19.458  6.2132 19.7085 32.9593
 1991 031   107   103   6379 20.0027  1.6442 10.8964  5.0983  3.6055 0.00000 10.211 20.760 22.641 20.206  6.2094 19.6977 32.9936
 1991 032   108   104   6409 28.2842  1.6830 14.2020  7.1739  4.5277 0.00000 10.055 20.256 25.975 21.357  6.2084 19.7376 32.9598
 1991 033   109   105   6456 27.0987  1.6715 13.6619  6.8727  4.8562 0.00000  9.892 19.741 27.916 22.153  6.2108 19.7944 32.8882
 1991 034   110   106   6495 26.5046  1.7532 12.8380  6.5665  5.8419 0.00000  9.713 19.188 30.166 24.797  6.2320 19.8596 32.6904
 1991 035   111   107   6538 26.8808  1.7097 12.9858  6.7880  5.7977 0.00000  9.534 18.636 29.617 24.642  6.2495 19.9174 32.5231
 1991 036   112   108   6591 26.4066  1.6732 12.7359  6.8204  5.6398 0.00000  9.352 18.082 28.412 24.440  6.2638 19.9697 32.3816
 1991 037   113   109   6620 21.8305  1.3905 10.9051  5.5918  4.8940 0.06044  9.224 17.643 26.651 23.288  6.2835 19.9770 32.2509
 1991 038   114   110   6684 25.4282  1.2631 12.4029  6.8397  4.9478 0.07304  9.111 17.243 27.371 22.577  6.2995 19.9754 32.1529
 1991 039   115   111   6731 21.9055  1.3490 10.7913  5.5422  5.0920 0.04972  8.973 16.791 27.853 23.525  6.3128 19.9866 32.0583
 1991 040   116   112   6763 19.6687  1.3584  9.7002  4.6943  5.1405 0.04200  8.824 16.320 27.992 24.023  6.3253 19.9967 31.9704
 1991 041   117   113   6821 23.3316  1.1906 11.0223  6.0284  5.3075 0.06754  8.699 15.913 29.190 23.504  6.3391 19.9984 31.8820
 1991 042   118   114   6865 20.4796  1.2837  9.6716  5.0176  5.4950 0.05313  8.547 15.453 28.401 24.969  6.3553 20.0023 31.7772
 1991 043   119   115   6930 21.5265  1.0126 10.4807  5.8326  4.0470 0.07843  8.439 15.103 24.240 20.916  6.3611 19.9690 31.7743
 1991 044   120   116   6986 17.3998  0.8856  9.0020  5.0760  2.8206 0.06417  8.338 14.789 22.202 17.092  6.3689 19.8305 31.8641
 1991 045   121   117   7035 15.1119  0.8133  8.0508  4.5996  2.2885 0.06419  8.243 14.498 19.425 15.602  6.3812 19.6538 31.9634
 1991 046   122   118   7087 15.7022  0.8299  8.2599  4.8109  2.4086 0.05541  8.136 14.191 21.197 15.623  6.3913 19.4899 32.0647
 1991 047   123   119   7148 18.4302  0.8289  9.1425  5.4120  3.0110 0.06849  8.028 13.887 24.393 17.141  6.3976 19.3836 32.1317
 1991 048   124   120   7202 19.3092  0.9633  8.8312  4.9801  4.3921 0.06667  7.887 13.520 28.676 21.890  6.4013 19.3943 32.0974
 1991 049   125   121   7246 17.2694  1.0283  7.9655  4.4350  4.2529 0.04783  7.719 13.107 27.382 22.312  6.4034 19.4102 32.0687
 1991 050   126   122   7294 17.3090  0.9122  7.8460  4.5316  4.0503 0.06185  7.570 12.745 28.071 21.324  6.4061 19.4124 32.0497
 1991 051   127   123   7323 14.0056  1.1601  6.4105  2.5098  4.7309 0.00000  7.341 12.233 29.902 24.442  6.3585 19.5365 32.2227
 1991 052   128   124   7095  7.4729  1.1001  3.5112  1.1641  3.8504 0.00000  7.021 11.252 26.714 23.431  6.3580 19.5489 32.2135
 1991 053   129   125   6945 11.7058  0.8803  5.3483  2.4947  3.5073 0.00000  6.726 10.412 26.568 21.538  6.3401 19.5916 32.2826
 1991 054   130   126   6830  9.0508  0.6736  4.5171  1.8127  2.3402 0.00000  6.472  9.717 22.521 17.635  6.3074 19.6267 32.4519
 1991 055   131   127   6726  8.0838  0.6557  3.4425  1.6943  3.1636 0.00000  6.196  9.062 27.317 21.505  6.3062 19.6330 32.4533
 1991 056   132   128   6635  6.2160  0.5930  2.2148  0.8725  3.6134 0.00000  5.920  8.468 31.036 23.657  6.3064 19.6397 32.4451
 1991 057   133   129   6554  4.6336  0.5403  0.9440  0.2708  4.0029 0.00259  5.639  7.932 32.924 26.010  6.3073 19.6423 32.4370
 1991 058   134   130   6481  2.5988  0.5154  0.0000  0.0000  4.0096 0.00000  5.338  7.426 32.260 27.307  6.3073 19.6423 32.4370
 1991 059   135   131   6422  1.5503  0.4356  0.0000  0.0000  2.7382 0.00000  5.071  6.993 24.351 22.855  6.3073 19.6423 32.4370
 1991 060   136   132   6372  1.5690  0.4112  0.0000  0.0000  2.9816 0.00000  4.809  6.590 26.790 24.013  6.3073 19.6423 32.4370
 1991 061   137   133   6331  1.1967  0.3652  0.0000  0.0000  2.6626 0.00000  4.569  6.232 25.967 22.692  6.3073 19.6423 32.4370
 1991 062   138   134   6296  1.5131  0.3452  0.0000  0.0000  3.1663 0.00000  4.335  5.899 30.506 24.598  6.3073 19.6423 32.4370
 1991 063   139   135   6266  1.0455  0.3111  0.0000  0.0000  2.5322 0.00000  4.120  5.599 25.953 22.217  6.3073 19.6423 32.4370

*DSSAT Cropping System Model Ver. 4.6.1.000 -release      OCT 19, 2016; 11:42:41
                                                                                
*RUN   2        : UYSB                      CRGRO046 UYSB0923    1              
 MODEL          : CRGRO046 - Soybean                                            
 EXPERIMENT     : UYSB0923 SN late to create DSS                                
=======
 2000 123     4     0      0  0.0000  0.0000  0.0000  0.0000  0.0000 0.00000  0.000  0.000 18.048 15.736  0.0000  0.0000  0.0000
 2000 124     5     1      0  0.0000  0.0000  0.0000  0.0000  0.0000 0.00000  0.000  0.000 15.823 13.650  0.0000  0.0000  0.0000
 2000 125     6     2      0  0.0000  0.0000  0.0000  0.0000  0.0000 0.00000  0.000  0.000 15.959 15.043  0.0000  0.0000  0.0000
 2000 126     7     3      0  0.0000  0.0000  0.0000  0.0000  0.0000 0.00000  0.000  0.000 14.793 12.421  0.0000  0.0000  0.0000
 2000 127     8     4      0  0.0000  0.0000  0.0000  0.0000  0.0000 0.00000  0.000  0.000 13.268 10.864  0.0000  0.0000  0.0000
 2000 128     9     5      0  0.0000  0.0000  0.0000  0.0000  0.0000 0.00000  0.000  0.000 15.814 11.991  0.0000  0.0000  0.0000
 2000 129    10     6      0  0.0000  0.0000  0.0000  0.0000  0.0000 0.00000  0.000  0.000 14.710 11.399  0.0000  0.0000  0.0000
 2000 130    11     7      0  0.0000  0.0000  0.0000  0.0000  0.0000 0.00000  0.000  0.000 16.454 12.234  0.0000  0.0000  0.0000
 2000 131    12     8      0  0.0000  0.0000  0.0000  0.0000  0.0000 0.00000  0.000  0.000 15.891 12.080  0.0000  0.0000  0.0000
 2000 132    13     9      0  0.0000  0.0000  0.0000  0.0000  0.0000 0.00000  0.000  0.000 16.181 12.205  0.0000  0.0000  0.0000
 2000 133    14    10      8  0.0000  0.0003  0.0002  0.0001  0.0000 0.00000  3.962  7.920 19.299 15.697  0.0000  0.0000  0.0000
 2000 134    15    11      8  0.0935  0.0004  0.0586  0.0203  0.0064 0.00000  3.918  7.834 21.457 18.128  0.0000  0.0000  0.0000
 2000 135    16    12      8  0.0367  0.0003  0.0213  0.0091  0.0033 0.00000  3.886  7.762 17.324 15.577  0.0000  0.0000  0.0000
 2000 136    17    13      8  0.0372  0.0004  0.0216  0.0093  0.0036 0.00000  3.852  7.685 16.572 16.202  0.0000  0.0000  0.0000
 2000 137    18    14      9  0.0542  0.0003  0.0330  0.0129  0.0037 0.00000  3.825  7.627 16.488 15.180  0.0000  0.0000  0.0000
 2000 138    19    15      9  0.0721  0.0004  0.0450  0.0163  0.0046 0.00000  3.797  7.576 17.493 15.717  0.0000  0.0000  0.0000
 2000 139    20    16     10  0.0913  0.0003  0.0578  0.0207  0.0044 0.00000  3.780  7.547 15.827 13.952  0.0000  0.0000  0.0000
 2000 140    21    17     10  0.0491  0.0003  0.0298  0.0116  0.0032 0.00000  3.763  7.507 15.161 13.187  0.0000  0.0000  0.0000
 2000 141    22    18     10  0.0726  0.0003  0.0460  0.0161  0.0036 0.00000  3.750  7.486 15.315 12.642  0.0000  0.0000  0.0000
 2000 142    23    19     11  0.0762  0.0003  0.0488  0.0161  0.0040 0.00000  3.734  7.469 16.845 12.804  0.0000  0.0000  0.0000
 2000 143    24    20     12  0.1333  0.0004  0.0866  0.0274  0.0063 0.00000  3.718  7.465 17.893 14.255  0.0000  0.0000  0.0000
 2000 144    25    21     12  0.1171  0.0003  0.0765  0.0243  0.0050 0.00000  3.707  7.466 16.453 12.452  0.0000  0.0000  0.0000
 2000 145    26    22     13  0.1429  0.0004  0.0930  0.0295  0.0073 0.00000  3.689  7.457 18.532 14.668  0.0000  0.0000  0.0000
 2000 146    27    23     14  0.0678  0.0006  0.0415  0.0146  0.0063 0.00000  3.658  7.396 18.548 16.751  0.0000  0.0000  0.0000
 2000 147    28    24     15  0.1707  0.0006  0.1112  0.0349  0.0092 0.00000  3.638  7.390 17.896 15.867  0.0000  0.0000  0.0000
 2000 148    29    25     15  0.1321  0.0004  0.0861  0.0274  0.0061 0.00000  3.628  7.388 15.929 12.871  0.0000  0.0000  0.0000
 2000 149    30    26     16  0.1049  0.0003  0.0689  0.0216  0.0043 0.00000  3.623  7.393 14.003 10.448  0.0000  0.0000  0.0000
 2000 150    31    27     17  0.0871  0.0003  0.0570  0.0178  0.0040 0.00000  3.617  7.391 14.409  9.795  0.0000  0.0000  0.0000
 2000 151    32    28     17  0.1466  0.0005  0.0866  0.0376  0.0073 0.00000  3.628  7.358 16.438 13.419  0.0000  0.0000  0.0000
 2000 152    33    29     18  0.0990  0.0004  0.0585  0.0254  0.0050 0.00000  3.631  7.333 13.704 11.715  0.0000  0.0000  0.0000
 2000 153    34    30     18  0.0603  0.0001  0.0358  0.0156  0.0027 0.00000  3.637  7.328 10.661  7.844  0.0000  0.0000  0.0000
 2000 154    35    31     19  0.0777  0.0002  0.0463  0.0203  0.0032 0.00000  3.642  7.318 12.688  7.324  0.0000  0.0000  0.0000
 2000 155    36    32     20  0.1734  0.0005  0.1069  0.0422  0.0077 0.00000  3.647  7.308 16.860 12.226  0.0000  0.0000  0.0000
 2000 156    37    33     21  0.2471  0.0009  0.1524  0.0575  0.0148 0.00000  3.638  7.288 20.421 16.650  0.0000  0.0000  0.0000
 2000 157    38    34     22  0.1985  0.0010  0.1212  0.0461  0.0139 0.00000  3.620  7.251 20.040 17.064  0.0000  0.0000  0.0000
 2000 158    39    35     23  0.1144  0.0011  0.0654  0.0281  0.0119 0.00000  3.594  7.179 18.698 17.938  0.0000  0.0000  0.0000
 2000 159    40    36     23  0.1046  0.0009  0.0597  0.0276  0.0095 0.00000  3.577  7.123 16.688 15.764  0.0000  0.0000  0.0000
 2000 160    41    37     25  0.2574  0.0009  0.1587  0.0614  0.0146 0.00000  3.572  7.125 17.528 15.911  0.0000  0.0000  0.0000
 2000 161    42    38     25  0.1099  0.0008  0.0633  0.0289  0.0089 0.00000  3.561  7.080 16.027 14.410  0.0000  0.0000  0.0000
 2000 162    43    39     26  0.1147  0.0009  0.0661  0.0297  0.0093 0.00000  3.549  7.037 16.204 14.555  0.0000  0.0000  0.0000
 2000 163    44    40     27  0.1803  0.0008  0.1060  0.0471  0.0106 0.00000  3.550  7.011 15.513 14.029  0.0000  0.0000  0.0000
 2000 164    45    41     29  0.2596  0.0008  0.1578  0.0644  0.0126 0.00000  3.556  7.022 16.265 13.662  0.0000  0.0000  0.0000
 2000 165    46    42     32  0.5435  0.0015  0.3416  0.1160  0.0345 0.00000  3.543  7.121 22.022 19.057  0.0000  0.0000  0.0000
 2000 166    47    43     36  0.6197  0.0019  0.3892  0.1280  0.0443 0.00000  3.524  7.197 23.219 20.551  0.0000  0.0000  0.0000
 2000 167    48    44     37  0.2792  0.0025  0.1586  0.0640  0.0335 0.00000  3.492  7.115 24.470 22.330  0.0000  0.0000  0.0000
 2000 168    49    45     39  0.3314  0.0012  0.1987  0.0831  0.0184 0.00000  3.500  7.103 18.203 14.318  0.0000  0.0000  0.0000
 2000 169    50    46     39  0.0869  0.0003  0.0507  0.0224  0.0055 0.00000  3.504  7.099 10.211  8.433  0.0000  0.0000  0.0000
 2000 170    51    47     40  0.0541  0.0002  0.0307  0.0140  0.0048 0.00000  3.506  7.096  8.849  8.026  0.0000  0.0000  0.0000
 2000 171    52    48     40  0.0698  0.0002  0.0404  0.0180  0.0049 0.00000  3.509  7.093  9.812  7.739  0.0000  0.0000  0.0000
 2000 172    53    49     41  0.1166  0.0002  0.0706  0.0296  0.0047 0.00000  3.516  7.099  9.441  6.216  0.0000  0.0000  0.0000
 2000 173    54    50     42  0.1985  0.0003  0.1225  0.0491  0.0064 0.00000  3.527  7.116 10.598  7.011  0.0000  0.0000  0.0000
 2000 174    55    51     44  0.2564  0.0005  0.1592  0.0622  0.0083 0.00000  3.537  7.137 12.249  7.543  0.0000  0.0000  0.0000
 2000 175    56    52     46  0.3833  0.0013  0.2347  0.0904  0.0195 0.00000  3.539  7.145 17.357 13.407  0.0000  0.0000  0.0000
 2000 176    57    53     52  0.9693  0.0024  0.6108  0.2046  0.0570 0.00000  3.533  7.242 21.910 18.486  0.0000  0.0000  0.0000
 2000 177    58    54     55  0.4512  0.0008  0.2849  0.1050  0.0156 0.00000  3.543  7.271 13.577 10.252  0.0000  0.0000  0.0000
 2000 178    59    55     57  0.3202  0.0007  0.2009  0.0757  0.0119 0.00000  3.549  7.284 12.456  9.097  0.0000  0.0000  0.0000
 2000 179    60    56     59  0.4124  0.0012  0.2582  0.0984  0.0181 0.00000  3.551  7.293 15.071 11.284  0.0000  0.0000  0.0000
 2000 180    61    57     61  0.2974  0.0023  0.1730  0.0754  0.0240 0.00000  3.538  7.244 16.767 15.219  0.0000  0.0000  0.0000
 2000 181    62    58     61  0.1466  0.0007  0.0850  0.0380  0.0102 0.00000  3.538  7.231 11.539  9.495  0.0000  0.0000  0.0000
 2000 182    63    59     64  0.3877  0.0007  0.2461  0.0892  0.0138 0.00000  3.543  7.255 12.350  9.119  0.0000  0.0000  0.0000
 2000 183    64    60     66  0.3012  0.0019  0.1813  0.0765  0.0213 0.00000  3.542  7.217 16.293 13.424  0.0000  0.0000  0.0000
 2000 184    65    61     68  0.4482  0.0010  0.2737  0.1106  0.0172 0.00000  3.551  7.229 12.848 10.209  0.0000  0.0000  0.0000
 2000 185    66    62     72  0.5563  0.0010  0.3506  0.1301  0.0192 0.00000  3.559  7.258 13.473  9.808  0.0000  0.0000  0.0000
 2000 186    67    63     76  0.6951  0.0013  0.4428  0.1573  0.0240 0.00000  3.564  7.294 14.946 10.024  0.0000  0.0000  0.0000
 2000 187    68    64     83  1.0957  0.0027  0.6957  0.2371  0.0528 0.00000  3.561  7.335 19.866 14.513  0.0000  0.0000  0.0000
 2000 188    69    65     93  1.7269  0.0053  1.0860  0.3516  0.1203 0.00000  3.540  7.372 23.722 20.415  0.0000  0.0000  0.0000
 2000 189    70    66    105  1.9287  0.0060  1.2169  0.3926  0.1337 0.00000  3.520  7.398 23.851 20.278  0.0000  0.0000  0.0000
 2000 190    71    67    113  1.2081  0.0060  0.7547  0.2555  0.0892 0.00000  3.498  7.370 22.133 18.526  0.0000  0.0000  0.0000
 2000 191    72    68    114  0.3026  0.0026  0.1825  0.0696  0.0250 0.00000  3.488  7.344 12.458 11.630  0.0000  0.0000  0.0000
 2000 192    73    69    115  0.1907  0.0012  0.1141  0.0443  0.0167 0.00000  3.486  7.334 10.378  9.119  0.0000  0.0000  0.0000
 2000 193    74    70    115  0.0000  0.0000  0.0000  0.0000  0.0078 0.00000  3.486  7.334  6.393  5.000  0.0000  0.0000  0.0000
 2000 194    75    71    115  0.0000  0.0000  0.0000  0.0000  0.0067 0.00000  3.486  7.334  5.224  4.030  0.0000  0.0000  0.0000
 2000 195    76    72    115  0.0000  0.0000  0.0000  0.0000  0.0057 0.00000  3.486  7.334  4.324  2.664  0.0000  0.0000  0.0000
 2000 196    77    73    115  0.0000  0.0003  0.0000  0.0000  0.0077 0.00000  3.484  7.329  7.474  3.720  0.0000  0.0000  0.0000
 2000 197    78    74    115  0.0624  0.0003  0.0350  0.0128  0.0090 0.00000  3.483  7.327  8.008  4.916  0.0000  0.0000  0.0000
 2000 198    79    75    115  0.0000  0.0000  0.0000  0.0000  0.0081 0.00000  3.483  7.326  6.659  5.196  0.0000  0.0000  0.0000
 2000 199    80    76    116  0.1830  0.0006  0.1123  0.0411  0.0111 0.00000  3.484  7.326  8.982  5.520  0.0000  0.0000  0.0000
 2000 200    81    77    118  0.2657  0.0007  0.1650  0.0605  0.0131 0.00000  3.487  7.328  9.515  6.250  0.0000  0.0000  0.0000
 2000 201    82    78    118  0.0000  0.0002  0.0000  0.0000  0.0078 0.00000  3.486  7.324  7.226  4.126  0.0000  0.0000  0.0000
 2000 202    83    79    121  0.4867  0.0012  0.3057  0.1143  0.0186 0.00000  3.492  7.328 11.725  6.719  0.0000  0.0000  0.0000
 2000 203    84    80    127  0.9256  0.0021  0.5824  0.2186  0.0338 0.00000  3.503  7.336 14.454  9.478  0.0000  0.0000  0.0000
 2000 204    85    81    128  0.2743  0.0008  0.1690  0.0637  0.0156 0.00000  3.505  7.337  9.763  7.323  0.0000  0.0000  0.0000
 2000 205    86    82    129  0.1968  0.0006  0.1207  0.0456  0.0121 0.00000  3.506  7.337  8.800  5.455  0.0000  0.0000  0.0000
 2000 206    87    83    135  0.9099  0.0021  0.5726  0.2170  0.0332 0.00000  3.516  7.344 13.661  9.443  0.0000  0.0000  0.0000
 2000 207    88    84    141  0.9629  0.0022  0.6063  0.2303  0.0348 0.00000  3.525  7.352 13.897  9.240  0.0000  0.0000  0.0000
 2000 208    89    85    144  0.5443  0.0015  0.3417  0.1300  0.0215 0.00000  3.529  7.353 11.618  6.655  0.0000  0.0000  0.0000
 2000 209    90    86    150  0.8921  0.0021  0.5617  0.2191  0.0325 0.00000  3.536  7.358 13.352  8.585  0.0000  0.0000  0.0000
 2000 210    91    87    151  0.1220  0.0006  0.0703  0.0274  0.0147 0.00000  3.535  7.354  8.779  6.797  0.0000  0.0000  0.0000
 2000 211    92    88    153  0.4005  0.0020  0.2453  0.0957  0.0261 0.00000  3.533  7.345 11.641  9.590  0.0000  0.0000  0.0000
 2000 212    93    89    154  0.2567  0.0017  0.1538  0.0600  0.0224 0.00000  3.529  7.335 10.242  9.165  0.0000  0.0000  0.0000
 2000 213    94    90    156  0.2520  0.0014  0.1515  0.0591  0.0211 0.00000  3.527  7.327 10.667  8.477  0.0000  0.0000  0.0000
 2000 214    95    91    163  1.1724  0.0045  0.7289  0.2841  0.0590 0.00000  3.527  7.317 16.254 12.713  0.0000  0.0000  0.0000
 2000 215    96    92    172  1.4525  0.0047  0.9069  0.3531  0.0667 0.00000  3.531  7.314 15.965 12.758  0.0000  0.0000  0.0000
 2000 216    97    93    176  0.7434  0.0018  0.4676  0.1820  0.0283 0.00000  3.535  7.319 11.525  7.571  0.0000  0.0000  0.0000
 2000 217    98    94    179  0.5078  0.0015  0.3173  0.1235  0.0228 0.00000  3.537  7.319 10.671  6.443  0.0000  0.0000  0.0000
 2000 218    99    95    191  1.9164  0.0047  1.2022  0.4676  0.0784 0.00000  3.547  7.329 17.649 11.352  0.0000  0.0000  0.0000
 2000 219   100    96    208  2.7905  0.0080  1.7304  0.6723  0.1465 0.00000  3.555  7.331 21.303 15.236  0.0000  0.0000  0.0000
 2000 220   101    97    229  3.5444  0.0110  2.1739  0.8451  0.2086 0.00990  3.594  7.433 22.596 17.338  0.0000  0.0000  0.0000
 2000 221   102    98    249  3.3848  0.0134  2.0497  0.7989  0.2232 0.02132  3.652  7.607 22.746 18.230  0.0000  0.0000  0.0000
 2000 222   103    99    259  1.6141  0.0041  1.0026  0.3911  0.0624 0.01232  3.690  7.713 12.789 10.036  0.0000  0.0000  0.0000
 2000 223   104   100    261  0.3603  0.0010  0.2174  0.0848  0.0238 0.00279  3.698  7.735  8.496  5.570  0.0000  0.0000  0.0000
 2000 224   105   101    263  0.2775  0.0011  0.1649  0.0644  0.0223 0.00222  3.703  7.750  8.527  4.951  0.0000  0.0000  0.0000
 2000 225   106   102    264  0.1994  0.0013  0.1151  0.0449  0.0217 0.00162  3.705  7.758  8.763  4.365  0.0000  0.0000  0.0000
 2000 226   107   103    277  2.1090  0.0058  1.3029  0.5091  0.0835 0.02144  3.762  7.922 15.011 10.677  0.0000  0.0000  0.0000
 2000 227   108   104    282  0.9204  0.0083  0.5476  0.2143  0.0721 0.01075  3.774  7.966 13.880 12.445  0.0000  0.0000  0.0000
 2000 228   109   105    297  2.4312  0.0073  1.4903  0.5838  0.1008 0.03345  3.852  8.192 15.075 11.689  0.0000  0.0000  0.0000
 2000 229   110   106    314  2.7900  0.0075  1.7035  0.6729  0.1083 0.04260  3.943  8.455 16.158 10.784  0.0000  0.0000  0.0000
 2000 230   111   107    333  2.9793  0.0084  1.8066  0.7199  0.1169 0.04988  4.039  8.731 16.477 10.754  0.0000  0.0000  0.0000
 2000 231   112   108    354  3.4575  0.0106  2.0785  0.8335  0.1462 0.06371  4.147  9.042 17.966 11.483  0.0000  0.0000  0.0000
 2000 232   113   109    389  5.9783  0.0221  3.5085  1.4097  0.3614 0.12755  4.332  9.574 23.803 17.177  0.0000  0.0000  0.0000
 2000 233   114   110    399  1.8406  0.0232  0.9910  0.4428  0.1719 0.04110  4.352  9.660 17.637 16.262  0.0000  0.0000  0.0000
 2000 234   115   111    423  4.0950  0.0327  2.3077  0.9458  0.3454 0.11210  4.467 10.011 22.442 19.620  0.0000  0.0000  0.0000
 2000 235   116   112    452  5.1631  0.0357  2.9004  1.1935  0.4085 0.16196  4.635 10.507 23.293 19.643  0.0000  0.0000  0.0000
 2000 236   117   113    474  3.8610  0.0359  2.1109  0.9053  0.3166 0.13195  4.747 10.847 20.469 18.400  0.0000  0.0000  0.0000
 2000 237   118   114    486  2.5895  0.0339  1.3738  0.6113  0.2363 0.09430  4.815 11.050 17.643 16.988  0.0000  0.0000  0.0000
 2000 238   119   115    496  1.9282  0.0241  1.0159  0.4626  0.1561 0.07511  4.877 11.217 15.296 13.810  0.0000  0.0000  0.0000
 2000 239   120   116    520  4.1211  0.0163  2.3333  0.9743  0.1681 0.17976  5.064 11.718 14.667 11.452  0.0000  0.0000  0.0000
 2000 240   121   117    548  4.7782  0.0177  2.6934  1.1265  0.1859 0.21542  5.266 12.261 16.061 10.766  0.0000  0.0000  0.0000
 2000 241   122   118    555  1.2937  0.0050  0.6396  0.3324  0.0623 0.05132  5.310 12.379  9.581  6.359  0.0000  0.0000  0.0000
 2000 242   123   119    576  3.6415  0.0158  2.0188  0.8677  0.1435 0.16722  5.450 12.749 14.557  9.390  0.0000  0.0000  0.0000
 2000 243   124   120    608  5.6104  0.0266  3.1207  1.3160  0.2513 0.27001  5.657 13.289 18.118 11.905  0.0000  0.0000  0.0000
 2000 244   125   121    625  3.0320  0.0162  1.6118  0.7415  0.1345 0.14152  5.754 13.544 13.219  9.641  0.0000  0.0000  0.0000
 2000 245   126   122    637  2.1406  0.0110  1.1076  0.5439  0.0892 0.09881  5.820 13.715 11.535  6.250  0.0000  0.0000  0.0000
 2000 246   127   123    653  2.9114  0.0148  1.5634  0.7190  0.1140 0.14261  5.913 13.956 12.875  7.062  0.0000  0.0000  0.0000
 2000 247   128   124    674  3.7085  0.0186  2.0186  0.9031  0.1432 0.18873  6.031 14.259 13.923  8.175  0.0000  0.0000  0.0000
 2000 248   129   125    710  6.1742  0.0322  3.3961  1.4692  0.2666 0.32955  6.223 14.748 17.345 11.418  0.0000  0.0000  0.0000
 2000 249   130   126    742  5.5814  0.0320  3.0197  1.3451  0.2395 0.30245  6.381 15.153 16.946 10.210  0.0000  0.0000  0.0000
 2000 250   131   127    783  7.0751  0.0414  3.8235  1.6891  0.3232 0.39751  6.575 15.641 18.274 11.951  0.0000  0.0000  0.0000
 2000 251   132   128    843 10.7315  0.0819  5.7153  2.4916  0.6814 0.63095  6.844 16.308 23.018 17.144  0.0000  0.0000  0.0000
 2000 252   133   129    910 12.2506  0.1154  6.3643  2.8212  0.9260 0.74828  7.118 16.981 24.543 19.678  0.0000  0.0000  0.0000
 2000 253   134   130    929  4.4504  0.1112  2.0186  1.1153  0.4815 0.22088  7.150 17.048 20.739 17.832  0.0000  0.0000  0.0000
 2000 254   135   131    972  8.6843  0.1331  5.0569  1.6693  0.7661 0.63170  7.418 17.566 22.415 19.645  0.0000  0.0000  0.0000
 2000 255   136   132   1000  5.9832  0.1063  2.6159  1.5403  0.4936 0.29641  7.444 17.691 20.049 16.330  0.0000  0.0000  0.0000
 2000 256   137   133   1018  3.5455  0.0464  1.5273  0.9388  0.2242 0.16349  7.459 17.773 13.383 10.924  0.0000  0.0000  0.0000
 2000 257   138   134   1014  0.8821  0.0113  0.2797  0.2565  0.1131 0.01595  7.465 17.776  8.928  7.769  0.0000  0.0000  0.0000
 2000 258   139   135   1013  1.3973  0.0269  0.4580  0.4176  0.1456 0.02335  7.455 17.757 10.217  9.232  0.0000  0.0000  0.0000
 2000 259   140   136   1027  3.0163  0.0568  1.3952  0.7468  0.2363 0.14127  7.485 17.823 13.655 11.719  0.0000  0.0000  0.0000
 2000 260   141   137   1058  5.9241  0.0790  2.9937  1.3508  0.3652 0.38415  7.601 18.100 15.639 13.455  0.0000  0.0000  0.0000
 2000 261   142   138   1096  7.0133  0.0825  3.5483  1.5767  0.4148 0.49221  7.751 18.465 17.457 13.438  0.0000  0.0000  0.0000
 2000 262   143   139   1108  4.1621  0.1250  1.9213  1.0065  0.4480 0.20058  7.769 18.493 17.423 16.223  0.0000  0.0000  0.0000
 2000 263   144   140   1157  9.7564  0.0000  4.1240  0.9481  0.7501 3.11406  9.449 22.904 20.118 17.858  0.0000  0.0000  0.0000
 2000 264   145   141   1189  6.5663  0.1785  3.8497  1.1686  0.6053 0.54009  9.576 23.060 20.019 17.122  0.0000  0.0000  0.0000
 2000 265   146   142   1208  5.1381  0.1454  1.5635  1.5714  0.4455 0.11055  9.463 22.893 16.678 14.946  0.0000  0.0000  0.0000
 2000 266   147   143   1255  9.0270  0.1173  3.8728  2.2464  0.4935 0.60253  9.525 23.083 17.196 13.376  0.0000  0.0000  0.0000
 2000 267   148   144   1294  8.2641  0.1433  3.5494  2.0132  0.5553 0.53099  9.597 23.230 19.104 14.434  0.0000  0.0000  0.0000
 2000 268   149   145   1309  3.9319  0.0447  1.4393  1.0655  0.2168 0.19615  9.644 23.302 11.457  9.014  0.0000  0.0000  0.0000
 2000 269   150   146   1322  3.3635  0.0406  1.2842  0.9006  0.1845 0.18569  9.688 23.372 11.519  7.482  0.0000  0.0000  0.0000
 2000 270   151   147   1347  5.1097  0.0651  2.2864  1.2474  0.2620 0.37369  9.769 23.524 13.882  8.887  0.0000  0.0000  0.0000
 2000 271   152   148   1412 12.0869  0.1678  5.8222  2.6864  0.7625 1.06671  9.986 23.959 21.202 14.929  0.0000  0.0000  0.0000
 2000 272   153   149   1486 14.8280  0.2593  7.0288  3.3599  1.1139 1.31963 10.220 24.416 23.440 17.874  0.0000  0.0000  0.0000
 2000 273   154   150   1554 14.4484  0.3142  6.6937  3.3846  1.2185 1.20549 10.398 24.748 24.231 18.840  0.0000  0.0000  0.0000
 2000 274   155   151   1622 14.1952  0.3594  6.5504  3.3619  1.2588 1.15741 10.546 25.011 23.507 19.356  6.1849 19.0027 33.8418
 2000 275   156   152   1686 13.7159  0.4004  6.3428  3.1408  1.2812 1.02998 10.651 25.183 23.053 19.646  6.1819 19.1320 33.7313
 2000 276   157   153   1696  5.2740  0.3621  2.9561  1.1362  0.7185 0.16530 10.637 25.018 18.167 17.208  6.2107 18.5548 34.1281
 2000 277   158   154   1720  7.4639  0.3602  4.3873  1.3096  0.7765 0.62039 10.742 25.096 19.401 16.737  6.2378 18.0743 34.4393
 2000 278   159   155   1754  9.5836  0.3316  4.7275  2.1021  0.7228 0.73818 10.795 25.195 17.312 15.109  6.3125 17.0590 34.9881
 2000 279   160   156   1786  9.1837  0.2804  4.0206  2.2097  0.5771 0.70580 10.820 25.293 16.654 12.745  6.4838 15.1546 35.8217
 2000 280   161   157   1832  8.6467  0.2729  4.0152  1.9577  0.5220 0.79206 10.872 25.442 16.466 11.666  6.6390 13.5443 36.4622
 2000 281   162   158   1871 11.2451  0.3588  5.3805  2.4913  0.7687 1.09481 10.961 25.668 19.338 14.003  6.6309 13.5261 36.5306
 2000 282   163   159   1927 13.3787  0.4505  6.9152  2.8088  1.0075 1.43397 11.169 26.024 20.608 16.089  6.5437 14.3840 36.2182
 2000 283   164   160   1939  4.8215  0.4516  2.6712  1.2058  0.6332 0.04839 11.055 25.735 17.178 15.078  6.5221 14.5465 36.1904
 2000 284   165   161   1990  9.8672  0.4097  5.1144  2.0698  0.6776 0.92500 11.143 25.877 16.783 13.544  6.5529 14.2008 36.3438
 2000 285   166   162   2049 11.7401  0.4671  5.5690  2.6075  0.8428 1.05776 11.188 26.003 19.152 14.452  6.5519 14.1866 36.3643
 2000 286   167   163   2131 16.6812  0.7511  8.2588  3.2342  1.8780 1.70753 11.310 26.233 25.500 21.582  6.4872 15.3107 35.6442
 2000 287   168   164   2192 13.0096  0.6262  6.8032  2.7897  1.1185 1.20888 11.382 26.338 20.276 16.748  6.4599 15.5476 35.5778
 2000 288   169   165   2195  5.5735  0.6600  2.9848  1.4910  0.8519 0.00000 11.202 25.921 18.795 16.692  6.4382 15.7337 35.5278
 2000 289   170   166   2203  5.8168  0.6393  3.1448  1.5680  0.8163 0.00000 11.027 25.513 18.753 16.080  6.4272 15.7966 35.5334
 2000 290   171   167   2227  9.4375  0.7422  5.3269  2.0433  1.2171 0.46553 10.960 25.269 21.944 18.771  6.3924 16.2316 35.3159
 2000 291   172   168   2253  9.2256  0.7718  4.9739  2.1201  1.2485 0.19910 10.821 24.882 21.165 19.204  6.3611 16.6490 35.0942
 2000 292   173   169   2270  7.3581  0.8038  3.7901  1.8560  1.2576 0.00000 10.604 24.366 22.496 19.892  6.3350 17.0432 34.8629
 2000 293   174   170   2278  9.1977  0.7383  5.9168  1.7005  1.1334 0.44109 10.590 24.154 19.218 18.076  6.3199 17.1906 34.8101
 2000 294   175   171   2286  7.6678  0.8490  4.2035  1.7202  1.4318 0.00000 10.407 23.629 24.948 21.022  6.3004 17.6087 34.5140
 2000 295   176   172   2316 15.1217  0.8506  8.4897  2.6359  1.8713 1.16424 10.533 23.712 25.659 21.268  6.2854 17.9628 34.2532
 2000 296   177   173   2317  6.0659  0.7613  4.0147  1.2928  1.0091 0.00000 10.409 23.261 19.163 17.878  6.2768 17.9664 34.3038
 2000 297   178   174   2327  5.5528  0.7177  3.5641  1.2510  0.8866 0.00000 10.284 22.826 18.191 16.726  6.2807 17.8159 34.4296
 2000 298   179   175   2334  6.2667  0.7587  3.5374  1.4555  1.0524 0.00000 10.115 22.342 20.844 18.058  6.2733 17.8570 34.4351
 2000 299   180   176   2356 10.0179  0.5316  6.5438  1.6777  1.3314 0.32726 10.216 22.275 21.203 19.273  6.2621 18.0048 34.3570
 2000 300   181   177   2373  9.9553  0.2506  6.2257  1.6093  1.5487 0.18845 10.406 22.363 23.046 20.974  6.2532 18.2405 34.1768
 2000 301   182   178   2446 15.1155  0.0000  8.4553  2.1920  1.5276 1.55502 10.985 23.505 22.996 18.600  6.2475 18.2767 34.1766
 2000 302   183   179   2483 10.6374  0.7359  6.2570  2.1586  0.9213 0.27355 10.937 23.216 18.506 14.610  6.2712 17.9412 34.3640
 2000 303   184   180   2514  8.6286  0.6760  4.8402  1.9497  0.7006 0.18755 10.824 22.892 16.370 12.616  6.3096 17.4877 34.5773
 2000 304   185   181   2590 15.4818  0.8688  9.5322  2.6637  1.6158 1.33640 10.977 23.090 24.543 18.250  6.3014 17.5565 34.5595
 2000 305   186   182   2637 15.4229  0.9543  9.6411  2.7279  1.7704 1.20607 11.088 23.168 24.543 19.465  6.2911 17.6952 34.4857
 2000 306   187   183   2631  6.6914  0.9882  4.0845  1.6262  1.3685 0.00000 10.898 22.579 23.242 19.629  6.2801 17.8498 34.3999
 2000 307   188   184   2663 11.1956  0.9134  7.0153  2.3930  1.3679 0.17780 10.830 22.151 21.248 18.135  6.2741 17.8838 34.4029
 2000 308   189   185   2706 12.4897  0.8504  7.4888  2.5551  1.2613 0.63050 10.847 22.002 21.391 16.382  6.2789 17.7743 34.4826
 2000 309   190   186   2717  9.2296  0.8597  5.5096  2.3207  1.1246 0.00000 10.693 21.481 20.369 16.289  6.2839 17.6666 34.5591
 2000 310   191   187   2754 12.6896  0.8732  8.0559  2.6129  1.3843 0.63938 10.700 21.326 22.002 17.243  6.2826 17.6452 34.5887
 2000 311   192   188   2810 13.2041  0.6529  8.0380  2.6343  1.6456 0.59469 10.798 21.329 23.235 19.048  6.2743 17.7547 34.5310
 2000 312   193   189   2815  7.8673  0.9661  4.7665  1.9772  1.4401 0.00000 10.622 20.734 22.380 19.301  6.2667 17.8633 34.4697
 2000 313   194   190   2823 10.2133  0.9901  6.2186  2.3636  1.7824 0.00000 10.474 20.121 23.868 21.004  6.2604 18.0361 34.3366
 2000 314   195   191   2817  5.4180  0.8879  3.8555  1.2505  1.2311 0.00000 10.330 19.555 20.093 18.554  6.2557 18.0760 34.3258
 2000 315   196   192   2834 11.4331  0.0000  6.3323  2.4082  1.5135 0.44501 10.663 20.005 22.049 18.612  6.2516 18.1136 34.3141
 2000 316   197   193   2870 11.9344  0.0000  5.9665  2.2992  1.7493 1.15799 11.216 21.066 24.014 19.968  6.2459 18.2161 34.2467
 2000 317   198   194   2899 11.5478  0.8982  6.7838  2.6322  1.9525 0.06410 11.100 20.534 24.582 21.466  6.2428 18.3593 34.1235
 2000 318   199   195   2915  8.4978  0.8683  5.2559  2.1468  1.2234 0.00000 10.937 19.950 20.315 17.020  6.2453 18.2842 34.1825
 2000 319   200   196   2813  5.4733  0.6975  3.7837  1.6348  0.6484 0.00000 10.677 18.982 14.872 11.971  6.2754 17.9414 34.3376
 2000 320   201   197   2731  3.9387  0.5943  2.8846  1.2600  0.5436 0.00000 10.425 18.126 14.988 10.833  6.3052 17.6201 34.4724
 2000 321   202   198   2654  5.9670  0.6013  3.6660  1.7684  0.8950 0.00000 10.141 17.290 20.254 14.451  6.3157 17.4678 34.5591
 2000 322   203   199   2589  6.0672  0.5893  3.5113  1.7100  1.1743 0.00000  9.827 16.476 23.490 17.508  6.3124 17.4771 34.5701
 2000 323   204   200   2557  5.2889  0.5468  2.9546  1.3580  1.2897 0.00000  9.500 15.703 25.430 19.017  6.3074 17.5342 34.5447
 2000 324   205   201   2499  4.0857  0.5245  2.2270  0.8546  1.4393 0.00000  9.157 14.960 27.187 21.168  6.3040 17.6085 34.4915
 2000 325   206   202   2471  2.5117  0.4006  1.6071  0.5984  0.7907 0.00000  8.870 14.351 19.830 15.996  6.3054 17.5764 34.5150
 2000 326   207   203   2442  2.4349  0.3900  1.4420  0.4804  0.9644 0.00000  8.569 13.758 24.001 17.730  6.3041 17.5816 34.5176
 2000 327   208   204   2405  1.8132  0.4015  0.7920  0.2272  1.2229 0.00000  8.210 13.142 26.367 21.565  6.3032 17.6076 34.4977
 2000 328   209   205   2378  1.4828  0.3859  0.3157  0.0906  1.4749 0.00000  7.822 12.534 30.129 24.431  6.3036 17.6192 34.4835
 2000 329   210   206   2364  0.7017  0.2933  0.2401  0.0689  0.7100 0.00000  7.516 12.053 19.478 16.790  6.3036 17.6171 34.4856
 2000 330   211   207   2344  0.8106  0.2708  0.3243  0.0930  0.7018 0.00000  7.232 11.608 21.400 16.132  6.3038 17.6115 34.4899

*DSSAT Cropping System Model Ver. 4.6.1.000 -release      OCT 19, 2016; 11:08:31
                                                                                
*RUN   2        : UYSB                      CRGRO046 UYSB0908    1              
 MODEL          : CRGRO046 - Soybean                                            
 EXPERIMENT     : UYSB0908 SN late to create DSS                                
>>>>>>> origin/master
 DATA PATH      :                                                               
 TREATMENT  1   : UYSB                      CRGRO046                            
  
@YEAR DOY   DAS   DAP   TWAD    PHAD    CMAD    CGRD    GRAD    MRAD    CHAD   CL%D   CS%D   TGNN   TGAV    GN%D    GL%D    GC%D
<<<<<<< HEAD
 1991 293     4     0      0  0.0000  0.0000  0.0000  0.0000  0.0000 0.00000  0.000  0.000 23.031 18.607  0.0000  0.0000  0.0000
 1991 294     5     1      0  0.0000  0.0000  0.0000  0.0000  0.0000 0.00000  0.000  0.000 27.287 21.791  0.0000  0.0000  0.0000
 1991 295     6     2      0  0.0000  0.0000  0.0000  0.0000  0.0000 0.00000  0.000  0.000 28.388 24.783  0.0000  0.0000  0.0000
 1991 296     7     3      0  0.0000  0.0000  0.0000  0.0000  0.0000 0.00000  0.000  0.000 18.131 15.810  0.0000  0.0000  0.0000
 1991 297     8     4      0  0.0000  0.0000  0.0000  0.0000  0.0000 0.00000  0.000  0.000 16.330 13.758  0.0000  0.0000  0.0000
 1991 298     9     5      0  0.0000  0.0000  0.0000  0.0000  0.0000 0.00000  0.000  0.000 20.426 18.318  0.0000  0.0000  0.0000
 1991 299    10     6      0  0.0000  0.0000  0.0000  0.0000  0.0000 0.00000  0.000  0.000 23.630 20.558  0.0000  0.0000  0.0000
 1991 300    11     7      8  0.0000  0.0005  0.0003  0.0001  0.0000 0.00000  3.948  7.891 22.034 18.961  0.0000  0.0000  0.0000
 1991 301    12     8      8  0.0629  0.0004  0.0385  0.0141  0.0048 0.00000  3.907  7.806 19.337 17.479  0.0000  0.0000  0.0000
 1991 302    13     9      8  0.0571  0.0003  0.0348  0.0134  0.0040 0.00000  3.874  7.736 16.566 15.994  0.0000  0.0000  0.0000
 1991 303    14    10      9  0.0658  0.0004  0.0406  0.0154  0.0045 0.00000  3.842  7.671 17.504 16.289  0.0000  0.0000  0.0000
 1991 304    15    11      9  0.0824  0.0004  0.0516  0.0182  0.0059 0.00000  3.806  7.606 19.814 17.633  0.0000  0.0000  0.0000
 1991 305    16    12     10  0.1675  0.0005  0.1081  0.0352  0.0097 0.00000  3.775  7.580 21.054 17.979  0.0000  0.0000  0.0000
 1991 306    17    13     11  0.2124  0.0005  0.1380  0.0443  0.0111 0.00000  3.751  7.571 20.842 17.229  0.0000  0.0000  0.0000
 1991 307    18    14     13  0.2126  0.0006  0.1382  0.0432  0.0122 0.00000  3.724  7.552 21.361 17.783  0.0000  0.0000  0.0000
 1991 308    19    15     15  0.2878  0.0007  0.1877  0.0574  0.0168 0.00000  3.699  7.545 23.120 18.433  0.0000  0.0000  0.0000
 1991 309    20    16     16  0.2839  0.0009  0.1843  0.0559  0.0190 0.00000  3.668  7.520 24.083 19.538  0.0000  0.0000  0.0000
 1991 310    21    17     18  0.2045  0.0010  0.1311  0.0404  0.0167 0.00000  3.628  7.463 23.144 20.246  0.0000  0.0000  0.0000
 1991 311    22    18     19  0.2873  0.0009  0.1762  0.0686  0.0179 0.00000  3.636  7.419 21.505 18.248  0.0000  0.0000  0.0000
 1991 312    23    19     21  0.2880  0.0009  0.1761  0.0700  0.0163 0.00000  3.646  7.383 20.123 16.902  0.0000  0.0000  0.0000
 1991 313    24    20     23  0.4054  0.0009  0.2533  0.0937  0.0212 0.00000  3.657  7.381 21.820 16.558  0.0000  0.0000  0.0000
 1991 314    25    21     26  0.4089  0.0012  0.2555  0.0902  0.0263 0.00000  3.648  7.367 23.668 18.513  0.0000  0.0000  0.0000
 1991 315    26    22     28  0.3186  0.0009  0.1989  0.0755  0.0153 0.00000  3.651  7.356 17.748 14.561  0.0000  0.0000  0.0000
 1991 316    27    23     30  0.3744  0.0007  0.2384  0.0872  0.0148 0.00000  3.658  7.373 17.232 12.720  0.0000  0.0000  0.0000
 1991 317    28    24     33  0.3925  0.0011  0.2498  0.0886  0.0194 0.00000  3.653  7.376 19.236 14.724  0.0000  0.0000  0.0000
 1991 318    29    25     34  0.2498  0.0013  0.1519  0.0596  0.0174 0.00000  3.638  7.333 18.811 16.017  0.0000  0.0000  0.0000
 1991 319    30    26     36  0.4171  0.0017  0.2566  0.0979  0.0284 0.00000  3.625  7.305 21.058 18.121  0.0000  0.0000  0.0000
 1991 320    31    27     40  0.6534  0.0018  0.4102  0.1502  0.0378 0.00000  3.622  7.322 21.658 17.682  0.0000  0.0000  0.0000
 1991 321    32    28     45  0.7448  0.0019  0.4712  0.1693  0.0410 0.00000  3.620  7.347 21.378 17.187  0.0000  0.0000  0.0000
 1991 322    33    29     51  1.0329  0.0027  0.6514  0.2246  0.0703 0.00000  3.608  7.377 25.105 20.197  0.0000  0.0000  0.0000
 1991 323    34    30     58  1.0372  0.0025  0.6634  0.2291  0.0561 0.00000  3.604  7.404 20.265 17.578  0.0000  0.0000  0.0000
 1991 324    35    31     65  1.1743  0.0032  0.7415  0.2615  0.0721 0.00000  3.600  7.413 22.830 18.746  0.0000  0.0000  0.0000
 1991 325    36    32     74  1.5253  0.0042  0.9433  0.3460  0.1085 0.00000  3.604  7.411 26.388 20.619  0.0000  0.0000  0.0000
 1991 326    37    33     84  1.7168  0.0054  1.0429  0.3763  0.1577 0.00000  3.595  7.398 30.627 23.639  0.0000  0.0000  0.0000
 1991 327    38    34     95  1.8256  0.0072  1.0865  0.3847  0.2103 0.00000  3.571  7.365 32.915 26.931  0.0000  0.0000  0.0000
 1991 328    39    35     99  0.7399  0.0043  0.4587  0.1683  0.0528 0.00000  3.555  7.328 18.376 16.477  0.0000  0.0000  0.0000
 1991 329    40    36    102  0.7796  0.0045  0.4791  0.1817  0.0555 0.00000  3.543  7.291 18.173 16.524  0.0000  0.0000  0.0000
 1991 330    41    37    109  1.2327  0.0046  0.7950  0.2692  0.0721 0.00000  3.554  7.284 19.166 16.442  0.0000  0.0000  0.0000
 1991 331    42    38    122  2.0844  0.0054  1.3504  0.4360  0.1187 0.00000  3.577  7.317 22.367 17.528  0.0000  0.0000  0.0000
 1991 332    43    39    137  2.5524  0.0087  1.5602  0.5374  0.2068 0.00000  3.556  7.322 27.088 22.035  0.0000  0.0000  0.0000
 1991 333    44    40    150  2.2994  0.0102  1.4369  0.4653  0.1983 0.00000  3.529  7.304 24.707 22.341  0.0000  0.0000  0.0000
 1991 334    45    41    170  3.5327  0.0117  2.1146  0.7970  0.2915 0.00000  3.551  7.283 26.754 22.919  0.0000  0.0000  0.0000
 1991 335    46    42    193  3.7833  0.0120  2.2895  0.8520  0.2830 0.00000  3.567  7.273 26.019 21.287  0.0000  0.0000  0.0000
 1991 336    47    43    221  4.8135  0.0145  2.8939  1.0717  0.3907 0.00000  3.583  7.268 28.052 22.604  0.0000  0.0000  0.0000
 1991 337    48    44    244  3.9087  0.0174  2.3352  0.8792  0.3472 0.00000  3.572  7.228 26.222 22.816  0.0000  0.0000  0.0000
 1991 338    49    45    282  6.5205  0.0196  3.9083  1.4794  0.5732 0.00000  3.586  7.233 29.430 23.910  0.0000  0.0000  0.0000
 1991 339    50    46    309  5.0500  0.0225  3.1166  1.1069  0.4474 0.00000  3.606  7.197 26.092 22.866  0.0000  0.0000  0.0000
 1991 340    51    47    357  8.5447  0.0272  4.8957  1.9578  0.8211 0.01047  3.621  7.270 30.071 25.446  0.0000  0.0000  0.0000
 1991 341    52    48    399  7.2564  0.0300  4.2880  1.6182  0.6467 0.03429  3.669  7.442 26.621 23.467  0.0000  0.0000  0.0000
 1991 342    53    49    464 10.9743  0.0344  6.4778  2.4298  0.9387 0.08968  3.806  7.862 28.181 23.844  0.0000  0.0000  0.0000
 1991 343    54    50    494  5.7307  0.0352  3.5204  1.2309  0.4901 0.06705  3.891  8.069 22.279 20.881  0.0000  0.0000  0.0000
 1991 344    55    51    574 12.6211  0.0000  7.3139  2.0637  1.0137 1.12857  5.402 12.431 25.905 22.966  0.0000  0.0000  0.0000
 1991 345    56    52    637 12.1465  0.0703  5.6388  3.1658  1.0017 0.17391  5.293 12.360 26.226 22.534  0.0000  0.0000  0.0000
 1991 346    57    53    678  7.6579  0.0664  3.8755  1.8791  0.6344 0.13957  5.265 12.344 22.840 20.260  0.0000  0.0000  0.0000
 1991 347    58    54    784 17.6080  0.0791 11.0566  3.5598  1.3222 0.45873  5.503 12.754 26.628 21.862  0.0000  0.0000  0.0000
 1991 348    59    55    827  8.1142  0.0795  4.8660  1.6851  0.6589 0.22632  5.562 12.865 21.207 19.344  0.0000  0.0000  0.0000
 1991 349    60    56    876  8.9230  0.0903  5.3370  1.8204  0.7666 0.27692  5.639 13.027 22.595 20.158  0.0000  0.0000  0.0000
 1991 350    61    57    983 17.2307  0.1114 10.8408  3.0373  1.3991 0.65462  5.875 13.595 25.596 22.085  0.0000  0.0000  0.0000
 1991 351    62    58   1123 21.6890  0.1383 13.8818  3.9794  1.8194 0.88595  6.132 14.223 26.483 22.936  0.0000  0.0000  0.0000
 1991 352    63    59   1233 22.6609  0.1759  8.7453  5.9301  2.2325 0.62048  6.045 14.411 29.331 24.566  0.0000  0.0000  0.0000
 1991 353    64    60   1353 21.8086  0.1937 13.6034  3.8663  2.2290 1.04058  6.427 15.048 29.379 24.470  0.0000  0.0000  0.0000
 1991 354    65    61   1508 26.1567  0.2258 15.3624  4.9209  2.6161 1.26282  6.681 15.661 29.272 24.614  0.0000  0.0000  0.0000
 1991 355    66    62   1616 25.0968  0.2798  9.1762  6.4155  2.9501 0.81254  6.622 15.806 30.738 26.260  0.0000  0.0000  0.0000
 1991 356    67    63   1672 16.0930  0.2810  6.7700  3.8444  1.9138 0.59958  6.717 15.940 26.196 23.760  0.0000  0.0000  0.0000
 1991 357    68    64   1818 26.5587  0.0000 15.3890  4.3397  2.8542 1.75434  7.262 17.111 28.604 24.842  0.0000  0.0000  0.0000
 1991 358    69    65   1977 29.1617  0.3722 14.6966  6.1543  3.3352 1.52547  7.367 17.521 29.444 25.789  0.0000  0.0000  0.0000
 1991 359    70    66   2108 26.3839  0.3343 12.7715  5.9985  2.3424 1.31674  7.500 17.868 24.509 21.571  0.0000  0.0000  0.0000
 1991 360    71    67   2238 24.3957  0.2781 14.0300  5.0213  1.7179 1.51958  7.772 18.374 21.463 18.130  0.0000  0.0000  0.0000
 1991 361    72    68   2414 30.0854  0.3260 16.9697  6.1289  2.1816 1.94142  8.000 18.926 23.496 18.910  0.0000  0.0000  0.0000
 1991 362    73    69   2607 32.6980  0.4220 18.8235  6.3520  2.7646 2.19462  8.235 19.468 25.042 20.849  0.0000  0.0000  0.0000
 1991 363    74    70   2817 34.3254  0.5041 20.5363  6.1928  3.2888 2.52355  8.476 20.022 27.341 22.073  0.0000  0.0000  0.0000
 1991 364    75    71   2988 30.8524  0.6222 17.3361  5.7439  3.6589 2.07559  8.632 20.355 28.667 24.008  0.0000  0.0000  0.0000
 1991 365    76    72   3130 28.1421  0.7561 15.0220  5.0775  4.4293 1.81180  8.735 20.547 31.412 27.147  0.0000  0.0000  0.0000
 1992 001    77    73   3216 19.0692  0.7368 10.6577  3.4823  3.0480 0.97132  8.758 20.521 26.972 24.212  0.0000  0.0000  0.0000
 1992 002    78    74   3360 28.1534  0.7391 15.3803  5.2888  3.6368 1.76979  8.870 20.735 27.330 23.925  0.0000  0.0000  0.0000
 1992 003    79    75   3541 30.6659  0.5433 17.9403  5.7737  2.5482 2.07567  9.033 21.107 21.996 18.770  0.0000  0.0000  0.0000
 1992 004    80    76   3765 36.8476  0.0000 16.4946  5.1103  3.5138 7.66552 10.298 24.443 25.206 20.941  0.0000  0.0000  0.0000
 1992 005    81    77   3977 36.5244  0.8375 21.0790  6.7148  3.7388 2.69797 10.427 24.673 26.782 21.118  0.0000  0.0000  0.0000
 1992 006    82    78   4136 30.2104  0.9218 16.7920  5.7108  3.5248 1.94580 10.492 24.743 25.656 21.534  0.0000  0.0000  0.0000
 1992 007    83    79   4313 33.9719  1.0280 18.4827  6.3645  4.2595 2.30144 10.574 24.856 27.759 22.848  0.0000  0.0000  0.0000
 1992 008    84    80   4482 35.7687  1.2741 19.2473  6.4281  5.3907 2.38826 10.644 24.925 29.533 25.626  0.0000  0.0000  0.0000
 1992 009    85    81   4619 33.0606  1.3475 17.4409  6.1229  5.2833 1.89699 10.673 24.895 29.518 25.575  6.5088 20.5000 30.3198
 1992 010    86    82   4735 31.0680  1.4258 16.0376  6.0938  5.1701 1.30164 10.640 24.732 28.772 25.510  6.5047 20.5000 30.3458
 1992 011    87    83   4914 37.7739  1.1684 21.0863  7.3812  4.1366 2.28265 10.730 24.860 25.365 21.028  6.3311 20.2140 31.7165
 1992 012    88    84   5062 35.1346  1.2442 19.1847  7.1456  4.1762 1.59838 10.753 24.834 26.337 21.140  6.2706 20.1312 32.1774
 1992 013    89    85   5210 37.6883  1.3548 19.5698  8.0424  4.5868 1.60382 10.774 24.793 26.319 21.875  6.2509 20.1819 32.2500
 1992 014    90    86   5328 32.3157  1.4040 16.6204  7.1167  4.3432 0.77277 10.726 24.579 26.302 21.822  6.2398 20.2038 32.2977
 1992 015    91    87   5421 25.4877  0.9225 13.9206  6.0410  2.2196 0.38465 10.702 24.426 18.867 15.355  6.2874 19.0148 33.1888
 1992 016    92    88   5541 29.3489  1.0189 15.3032  6.8292  2.6815 0.85692 10.707 24.350 21.424 16.227  6.3004 18.4357 33.6865
 1992 017    93    89   5703 36.8337  1.3541 19.4501  7.8518  4.1567 1.68581 10.743 24.360 25.411 19.928  6.2744 18.6499 33.6348
 1992 018    94    90   5837 36.2690  1.5463 19.0271  7.7023  4.9752 1.19997 10.718 24.220 27.988 21.932  6.2647 18.9553 33.3905
 1992 019    95    91   5914 31.6501  1.7071 16.3601  6.9439  5.3793 0.30377 10.607 23.850 29.116 23.669  6.2784 19.2362 33.0237
 1992 020    96    92   6007 35.9016  1.8199 17.4263  7.7805  6.5856 0.64143 10.512 23.525 31.198 25.716  6.3214 19.4596 32.5319
 1992 021    97    93   6086 33.1573  1.8447 16.7948  7.4745  5.9935 0.00000 10.359 23.046 28.885 24.944  6.3446 19.6435 32.2026
 1992 022    98    94   6125 33.8993  1.7701 17.0412  7.8431  5.6976 0.00000 10.213 22.582 28.317 23.946  6.3480 19.7862 32.0388
 1992 023    99    95   6228 33.7418  1.6242 16.9373  8.1881  4.9068 0.00000 10.081 22.151 26.313 21.942  6.3264 19.8716 32.0887
 1992 024   100    96   6297 27.8117  1.6603 14.2699  6.5385  4.7568 0.00000  9.944 21.708 26.289 22.384  6.3139 19.9503 32.0879
 1992 025   101    97   6324 24.0491  1.8035 12.3795  5.4329  5.2925 0.00000  9.793 21.221 27.230 24.472  6.3278 20.0288 31.9225
 1992 026   102    98   6369 30.7708  1.7923 14.9272  7.2551  5.9436 0.00000  9.641 20.728 27.988 24.872  6.3440 20.0931 31.7568
 1992 027   103    99   6359 29.1201  1.7133 14.6754  6.7699  5.4913 0.00000  9.495 20.249 27.229 23.970  6.3471 20.1475 31.6833
 1992 028   104   100   6383 25.7755  1.7395 12.6602  5.8915  5.8700 0.00000  9.342 19.747 28.726 25.467  6.3683 20.1966 31.5015
 1992 029   105   101   6400 24.4061  1.7076 12.1211  5.4999  5.7433 0.00000  9.191 19.245 28.205 25.412  6.3850 20.2368 31.3568
 1992 030   106   102   6379 16.4485  1.6348  8.7858  3.5554  5.1929 0.01102  9.052 18.758 28.001 25.459  6.4033 20.2558 31.2238
 1992 031   107   103   6371 24.8617  1.6476 12.0745  5.7650  6.2689 0.00000  8.908 18.249 29.744 26.558  6.4258 20.2843 31.0544
 1992 032   108   104   6411 25.5449  1.5603 12.4199  6.1170  6.1007 0.00000  8.769 17.750 29.585 26.005  6.4400 20.3097 30.9401
 1992 033   109   105   6470 28.3202  1.5603 13.6110  6.5564  6.6744 0.00000  8.626 17.237 29.679 26.851  6.4601 20.3307 30.7940
 1992 034   110   106   6497 20.6262  1.3208 10.6821  4.7516  5.0789 0.03322  8.519 16.813 26.446 24.299  6.4646 20.3245 30.7715
 1992 035   111   107   6550 25.4115  1.2084 12.6260  6.2096  5.3184 0.05207  8.428 16.426 26.930 23.995  6.4702 20.3111 30.7504
 1992 036   112   108   6621 26.5828  1.2312 12.8961  6.6970  5.8555 0.04706  8.325 16.017 28.012 25.042  6.4814 20.3030 30.6885
 1992 037   113   109   6696 26.6701  1.1533 12.7931  6.8931  5.7979 0.05673  8.230 15.632 28.137 24.738  6.4909 20.2914 30.6406
 1992 038   114   110   6769 26.7374  1.0934 12.3426  6.8143  6.3701 0.07449  8.142 15.270 29.817 25.881  6.5103 20.2730 30.5379
 1992 039   115   111   6831 25.1185  1.1451 11.3428  6.1646  6.8333 0.05666  8.031 14.869 31.424 27.024  6.5296 20.2632 30.4269
 1992 040   116   112   6854 15.7577  1.2553  7.9900  3.3995  5.0713 0.00000  7.872 14.383 27.740 24.629  6.5252 20.2730 30.4442
 1992 041   117   113   6868 12.2750  1.1476  6.6242  2.4793  4.0793 0.00000  7.722 13.929 24.728 22.583  6.5163 20.2777 30.4952
 1992 042   118   114   6899 16.0809  1.0719  8.1223  3.8000  4.2756 0.01387  7.579 13.504 25.080 22.577  6.5087 20.2779 30.5428
 1992 043   119   115   6970 23.7357  0.9185 11.0742  6.1997  4.8843 0.05763  7.469 13.158 25.930 23.071  6.5076 20.2675 30.5604
 1992 044   120   116   6992 14.5667  1.1240  6.9840  2.8997  4.8799 0.00153  7.291 12.686 27.965 24.713  6.5055 20.2742 30.5666
 1992 045   121   117   7003 10.4075  1.0116  5.4112  1.9122  3.6483 0.00000  7.123 12.251 23.608 21.929  6.4988 20.2742 30.6082
 1992 046   122   118   7057 20.5683  0.9894  9.1965  5.0282  5.3496 0.02279  6.958 11.830 28.609 25.000  6.5008 20.2755 30.5944
 1992 047   123   119   7113 21.0411  0.8696  9.0510  5.3637  5.5017 0.05136  6.817 11.472 29.270 25.341  6.5081 20.2677 30.5567
 1992 048   124   120   7168 20.5360  0.7702  8.6951  5.2500  5.2545 0.07226  6.697 11.165 28.569 24.891  6.5166 20.2539 30.5174
 1992 049   125   121   7218 20.0491  0.8399  8.2487  5.0220  5.7273 0.04838  6.544 10.806 30.636 26.172  6.5248 20.2475 30.4724
 1992 050   126   122   7260 18.8802  0.8569  7.3292  4.4652  6.3266 0.04610  6.378 10.432 31.829 28.080  6.5367 20.2412 30.4046
 1992 051   127   123   7299 18.2802  0.8303  6.8889  4.2524  6.4093 0.04676  6.209 10.064 32.293 28.474  6.5486 20.2347 30.3369
 1992 052   128   124   7329 12.5618  0.8328  5.6481  2.6273  3.7195 0.00000  6.017  9.663 26.596 21.850  6.5137 20.2935 30.4960
 1992 053   129   125   7100  5.1373  0.6802  2.6985  1.1202  2.0027 0.00000  5.794  8.839 18.304 16.663  6.5118 20.2610 30.5404
 1992 054   130   126   6953 11.1333  0.6689  4.9015  2.1419  3.3908 0.00000  5.541  8.067 24.864 21.726  6.4770 20.3218 30.6972
 1992 055   131   127   6837 10.3873  0.5604  4.4036  2.2460  3.1514 0.00000  5.299  7.400 24.862 21.260  6.4727 20.3183 30.7274
 1992 056   132   128   6741  7.9152  0.4636  3.3350  1.6085  2.6401 0.00000  5.075  6.830 23.749 19.899  6.4694 20.3085 30.7576
 1992 057   133   129   6658  5.9673  0.4233  2.1729  1.0138  2.9326 0.00000  4.847  6.319 26.914 21.604  6.4675 20.3076 30.7702
 1992 058   134   130   6586  3.9371  0.3504  1.4317  0.5603  2.2521 0.00000  4.642  5.887 23.498 19.330  6.4662 20.3019 30.7843
 1992 059   135   131   6528  2.6107  0.2794  1.0200  0.3617  1.5720 0.00000  4.465  5.530 20.460 15.758  6.4660 20.2868 30.8009
 1992 060   136   132   6478  2.4133  0.2741  0.6097  0.1749  1.9460 0.00000  4.276  5.198 23.075 18.196  6.4655 20.2828 30.8081
 1992 061   137   133   6433  1.8842  0.2655  0.0000  0.0000  2.2519 0.00000  4.076  4.890 24.929 20.195  6.4655 20.2828 30.8081
 1992 062   138   134   6396  1.5288  0.2530  0.0000  0.0000  2.4336 0.00000  3.877  4.606 25.656 21.456  6.4655 20.2828 30.8081
 1992 063   139   135   6364  0.9495  0.2364  0.0000  0.0000  2.4462 0.00000  3.686  4.347 25.500 21.871  6.4655 20.2828 30.8081
 1992 064   140   136   6324  0.5902  0.2263  0.0000  0.0000  2.6107 0.00000  3.498  4.104 25.840 22.995  6.4655 20.2828 30.8081

*DSSAT Cropping System Model Ver. 4.6.1.000 -release      OCT 19, 2016; 11:42:41
                                                                                
*RUN   3        : UYSB                      CRGRO046 UYSB0923    1              
 MODEL          : CRGRO046 - Soybean                                            
 EXPERIMENT     : UYSB0923 SN late to create DSS                                
=======
 2001 123     4     0      0  0.0000  0.0000  0.0000  0.0000  0.0000 0.00000  0.000  0.000 14.351 11.190  0.0000  0.0000  0.0000
 2001 124     5     1      0  0.0000  0.0000  0.0000  0.0000  0.0000 0.00000  0.000  0.000 11.703  9.496  0.0000  0.0000  0.0000
 2001 125     6     2      0  0.0000  0.0000  0.0000  0.0000  0.0000 0.00000  0.000  0.000 15.678 12.421  0.0000  0.0000  0.0000
 2001 126     7     3      0  0.0000  0.0000  0.0000  0.0000  0.0000 0.00000  0.000  0.000 14.889 10.992  0.0000  0.0000  0.0000
 2001 127     8     4      0  0.0000  0.0000  0.0000  0.0000  0.0000 0.00000  0.000  0.000 17.564 14.314  0.0000  0.0000  0.0000
 2001 128     9     5      0  0.0000  0.0000  0.0000  0.0000  0.0000 0.00000  0.000  0.000 13.974 13.094  0.0000  0.0000  0.0000
 2001 129    10     6      0  0.0000  0.0000  0.0000  0.0000  0.0000 0.00000  0.000  0.000 14.832 13.885  0.0000  0.0000  0.0000
 2001 130    11     7      0  0.0000  0.0000  0.0000  0.0000  0.0000 0.00000  0.000  0.000 14.435 12.173  0.0000  0.0000  0.0000
 2001 131    12     8      0  0.0000  0.0000  0.0000  0.0000  0.0000 0.00000  0.000  0.000 13.167 10.638  0.0000  0.0000  0.0000
 2001 132    13     9      0  0.0000  0.0000  0.0000  0.0000  0.0000 0.00000  0.000  0.000 12.736 11.153  0.0000  0.0000  0.0000
 2001 133    14    10      0  0.0000  0.0000  0.0000  0.0000  0.0000 0.00000  0.000  0.000 10.975  8.316  0.0000  0.0000  0.0000
 2001 134    15    11      0  0.0000  0.0000  0.0000  0.0000  0.0000 0.00000  0.000  0.000 11.441  7.271  0.0000  0.0000  0.0000
 2001 135    16    12      0  0.0000  0.0000  0.0000  0.0000  0.0000 0.00000  0.000  0.000 16.444 13.756  0.0000  0.0000  0.0000
 2001 136    17    13      0  0.0000  0.0000  0.0000  0.0000  0.0000 0.00000  0.000  0.000 13.460 12.587  0.0000  0.0000  0.0000
 2001 137    18    14      8  0.0000  0.0002  0.0001  0.0000  0.0000 0.00000  3.979  7.956 14.201 11.786  0.0000  0.0000  0.0000
 2001 138    19    15      8  0.0543  0.0002  0.0341  0.0128  0.0024 0.00000  3.962  7.921 15.306 10.984  0.0000  0.0000  0.0000
 2001 139    20    16      8  0.0563  0.0002  0.0355  0.0129  0.0026 0.00000  3.944  7.883 16.184 11.363  0.0000  0.0000  0.0000
 2001 140    21    17      9  0.0999  0.0004  0.0643  0.0214  0.0061 0.00000  3.912  7.812 20.701 16.720  0.0000  0.0000  0.0000
 2001 141    22    18      9  0.0378  0.0004  0.0211  0.0094  0.0037 0.00000  3.875  7.735 17.168 16.166  0.0000  0.0000  0.0000
 2001 142    23    19      9  0.0415  0.0003  0.0246  0.0100  0.0032 0.00000  3.850  7.677 16.759 14.321  0.0000  0.0000  0.0000
 2001 143    24    20      9  0.0590  0.0003  0.0368  0.0133  0.0033 0.00000  3.831  7.639 16.304 13.001  0.0000  0.0000  0.0000
 2001 144    25    21     10  0.1216  0.0004  0.0786  0.0252  0.0061 0.00000  3.808  7.613 19.177 14.743  0.0000  0.0000  0.0000
 2001 145    26    22     11  0.1502  0.0005  0.0970  0.0301  0.0086 0.00000  3.779  7.582 21.055 16.758  0.0000  0.0000  0.0000
 2001 146    27    23     12  0.0992  0.0006  0.0620  0.0196  0.0086 0.00000  3.739  7.514 23.264 18.836  0.0000  0.0000  0.0000
 2001 147    28    24     13  0.1773  0.0006  0.1148  0.0343  0.0116 0.00000  3.705  7.487 21.991 18.399  0.0000  0.0000  0.0000
 2001 148    29    25     14  0.1578  0.0006  0.1022  0.0312  0.0099 0.00000  3.678  7.461 21.215 16.894  0.0000  0.0000  0.0000
 2001 149    30    26     14  0.1025  0.0007  0.0647  0.0206  0.0085 0.00000  3.645  7.405 20.211 17.753  0.0000  0.0000  0.0000
 2001 150    31    27     15  0.1245  0.0008  0.0788  0.0250  0.0107 0.00000  3.610  7.354 22.412 18.727  0.0000  0.0000  0.0000
 2001 151    32    28     16  0.0971  0.0009  0.0632  0.0205  0.0111 0.00000  3.614  7.254 21.439 20.577  0.0000  0.0000  0.0000
 2001 152    33    29     16  0.1002  0.0008  0.0499  0.0270  0.0099 0.00000  3.587  7.173 19.852 18.857  0.0000  0.0000  0.0000
 2001 153    34    30     16  0.0929  0.0008  0.0519  0.0231  0.0092 0.00000  3.567  7.100 19.194 18.266  0.0000  0.0000  0.0000
 2001 154    35    31     17  0.1224  0.0010  0.0749  0.0272  0.0127 0.00000  3.557  7.027 21.406 20.347  0.0000  0.0000  0.0000
 2001 155    36    32     18  0.1158  0.0009  0.0638  0.0286  0.0108 0.00000  3.536  6.968 19.187 18.559  0.0000  0.0000  0.0000
 2001 156    37    33     18  0.1400  0.0009  0.1022  0.0260  0.0126 0.00000  3.557  6.924 21.604 19.023  0.0000  0.0000  0.0000
 2001 157    38    34     20  0.2630  0.0005  0.1652  0.0630  0.0108 0.00000  3.596  6.950 16.731 13.590  0.0000  0.0000  0.0000
 2001 158    39    35     21  0.2200  0.0004  0.1198  0.0581  0.0083 0.00000  3.598  6.969 14.971 11.898  0.0000  0.0000  0.0000
 2001 159    40    36     22  0.1511  0.0007  0.0849  0.0383  0.0094 0.00000  3.589  6.941 16.780 14.633  0.0000  0.0000  0.0000
 2001 160    41    37     24  0.2843  0.0011  0.1717  0.0629  0.0193 0.00000  3.573  6.974 20.747 18.403  0.0000  0.0000  0.0000
 2001 161    42    38     26  0.3356  0.0012  0.2056  0.0721  0.0227 0.00000  3.558  7.024 21.630 18.660  0.0000  0.0000  0.0000
 2001 162    43    39     29  0.5064  0.0012  0.3193  0.1063  0.0277 0.00000  3.553  7.137 19.910 17.667  0.0000  0.0000  0.0000
 2001 163    44    40     31  0.3895  0.0015  0.2404  0.0835  0.0269 0.00000  3.538  7.158 21.794 18.629  0.0000  0.0000  0.0000
 2001 164    45    41     35  0.6946  0.0017  0.4288  0.1545  0.0430 0.00000  3.546  7.224 23.031 19.175  0.0000  0.0000  0.0000
 2001 165    46    42     40  0.8725  0.0024  0.5380  0.1880  0.0644 0.00000  3.541  7.282 24.554 21.787  0.0000  0.0000  0.0000
 2001 166    47    43     42  0.3071  0.0018  0.1803  0.0780  0.0236 0.00000  3.533  7.233 20.515 16.793  0.0000  0.0000  0.0000
 2001 167    48    44     43  0.1210  0.0006  0.0707  0.0320  0.0077 0.00000  3.534  7.217 11.130  9.977  0.0000  0.0000  0.0000
 2001 168    49    45     43  0.0720  0.0002  0.0419  0.0183  0.0052 0.00000  3.537  7.215  9.120  7.803  0.0000  0.0000  0.0000
 2001 169    50    46     43  0.0602  0.0001  0.0354  0.0149  0.0043 0.00000  3.539  7.215  8.581  6.309  0.0000  0.0000  0.0000
 2001 170    51    47     44  0.1277  0.0003  0.0764  0.0325  0.0065 0.00000  3.544  7.214 10.480  8.209  0.0000  0.0000  0.0000
 2001 171    52    48     45  0.0891  0.0002  0.0542  0.0209  0.0054 0.00000  3.547  7.219  8.717  7.697  0.0000  0.0000  0.0000
 2001 172    53    49     46  0.2981  0.0004  0.1884  0.0709  0.0087 0.00000  3.558  7.246 11.444  7.627  0.0000  0.0000  0.0000
 2001 173    54    50     49  0.3333  0.0005  0.2111  0.0785  0.0100 0.00000  3.568  7.273 11.944  8.127  0.0000  0.0000  0.0000
 2001 174    55    51     50  0.2862  0.0006  0.1801  0.0681  0.0097 0.00000  3.573  7.288 12.505  7.733  0.0000  0.0000  0.0000
 2001 175    56    52     51  0.1574  0.0005  0.0944  0.0399  0.0082 0.00000  3.577  7.284 10.800  8.859  0.0000  0.0000  0.0000
 2001 176    57    53     52  0.1690  0.0010  0.0983  0.0445  0.0116 0.00000  3.573  7.258 12.339 11.352  0.0000  0.0000  0.0000
 2001 177    58    54     54  0.2814  0.0006  0.1763  0.0677  0.0105 0.00000  3.577  7.272 11.729  8.931  0.0000  0.0000  0.0000
 2001 178    59    55     56  0.4210  0.0006  0.2694  0.0979  0.0125 0.00000  3.584  7.304 12.518  8.204  0.0000  0.0000  0.0000
 2001 179    60    56     60  0.5217  0.0010  0.3309  0.1221  0.0180 0.00000  3.591  7.331 14.127 10.274  0.0000  0.0000  0.0000
 2001 180    61    57     63  0.5770  0.0014  0.3597  0.1381  0.0239 0.00000  3.596  7.341 15.885 11.964  0.0000  0.0000  0.0000
 2001 181    62    58     69  0.9437  0.0023  0.5926  0.2180  0.0427 0.00000  3.598  7.364 18.073 14.579  0.0000  0.0000  0.0000
 2001 182    63    59     73  0.5999  0.0019  0.3716  0.1464  0.0284 0.00000  3.597  7.358 16.296 12.835  0.0000  0.0000  0.0000
 2001 183    64    60     74  0.2521  0.0017  0.1462  0.0664  0.0179 0.00000  3.591  7.326 13.279 11.894  0.0000  0.0000  0.0000
 2001 184    65    61     79  0.7589  0.0029  0.4732  0.1786  0.0416 0.00000  3.585  7.318 17.467 15.158  0.0000  0.0000  0.0000
 2001 185    66    62     81  0.4087  0.0024  0.2437  0.1010  0.0284 0.00000  3.575  7.288 17.701 13.475  0.0000  0.0000  0.0000
 2001 186    67    63     83  0.3706  0.0005  0.2361  0.0856  0.0127 0.00000  3.579  7.306 10.006  7.594  0.0000  0.0000  0.0000
 2001 187    68    64     86  0.3850  0.0011  0.2401  0.0911  0.0162 0.00000  3.581  7.310 12.639  8.607  0.0000  0.0000  0.0000
 2001 188    69    65     96  1.6859  0.0048  1.0684  0.3502  0.1044 0.00000  3.562  7.358 22.799 18.699  0.0000  0.0000  0.0000
 2001 189    70    66    104  1.3516  0.0063  0.8159  0.3034  0.1054 0.00000  3.547  7.321 22.656 20.307  0.0000  0.0000  0.0000
 2001 190    71    67    115  1.9230  0.0073  1.1599  0.4296  0.1505 0.00000  3.541  7.302 25.216 21.277  0.0000  0.0000  0.0000
 2001 191    72    68    118  0.5438  0.0033  0.3323  0.1275  0.0373 0.00000  3.531  7.279 16.820 12.880  0.0000  0.0000  0.0000
 2001 192    73    69    123  0.6911  0.0013  0.4359  0.1641  0.0238 0.00000  3.538  7.294 11.666  8.551  0.0000  0.0000  0.0000
 2001 193    74    70    127  0.6451  0.0013  0.4069  0.1511  0.0223 0.00000  3.544  7.305 11.708  7.730  0.0000  0.0000  0.0000
 2001 194    75    71    132  0.8261  0.0016  0.5219  0.1928  0.0271 0.00000  3.552  7.319 12.370  8.323  0.0000  0.0000  0.0000
 2001 195    76    72    140  1.2615  0.0033  0.7903  0.2910  0.0527 0.00000  3.558  7.327 15.997 11.980  0.0000  0.0000  0.0000
 2001 196    77    73    148  1.3452  0.0034  0.8438  0.3101  0.0546 0.00000  3.564  7.337 16.750 11.103  0.0000  0.0000  0.0000
 2001 197    78    74    162  2.4231  0.0086  1.4841  0.5511  0.1568 0.00000  3.561  7.324 22.472 18.549  0.0000  0.0000  0.0000
 2001 198    79    75    176  2.3412  0.0103  1.4167  0.5289  0.1704 0.00637  3.578  7.386 22.555 19.528  0.0000  0.0000  0.0000
 2001 199    80    76    189  2.1490  0.0074  1.3227  0.4966  0.1106 0.01177  3.626  7.528 17.722 15.258  0.0000  0.0000  0.0000
 2001 200    81    77    193  0.9916  0.0080  0.5933  0.2283  0.0777 0.00788  3.637  7.578 17.066 15.134  0.0000  0.0000  0.0000
 2001 201    82    78    206  2.0369  0.0063  1.2515  0.4756  0.0913 0.02106  3.715  7.807 16.290 13.289  0.0000  0.0000  0.0000
 2001 202    83    79    214  1.3926  0.0036  0.8587  0.3239  0.0540 0.01625  3.772  7.971 13.079 10.210  0.0000  0.0000  0.0000
 2001 203    84    80    217  0.4185  0.0009  0.2540  0.0953  0.0220 0.00497  3.788  8.020  8.732  6.094  0.0000  0.0000  0.0000
 2001 204    85    81    217  0.0254  0.0007  0.0060  0.0029  0.0153 0.00012  3.787  8.016  7.731  4.289  0.0000  0.0000  0.0000
 2001 205    86    82    224  1.1972  0.0030  0.7368  0.2759  0.0441 0.01591  3.838  8.163 12.480  8.466  0.0000  0.0000  0.0000
 2001 206    87    83    229  0.8776  0.0063  0.5206  0.1994  0.0592 0.01284  3.863  8.245 14.006 12.098  0.0000  0.0000  0.0000
 2001 207    88    84    231  0.3014  0.0012  0.1709  0.0682  0.0257 0.00435  3.874  8.279  9.019  7.444  0.0000  0.0000  0.0000
 2001 208    89    85    232  0.1638  0.0006  0.0878  0.0367  0.0186 0.00227  3.879  8.297  7.780  5.332  0.0000  0.0000  0.0000
 2001 209    90    86    233  0.3485  0.0014  0.2037  0.0804  0.0220 0.00542  3.893  8.338  9.260  4.829  0.0000  0.0000  0.0000
 2001 210    91    87    245  1.8456  0.0046  1.1257  0.4310  0.0653 0.03228  3.983  8.597 14.606  9.095  0.0000  0.0000  0.0000
 2001 211    92    88    259  2.3720  0.0096  1.4163  0.5473  0.1196 0.04622  4.090  8.909 17.648 13.814  0.0000  0.0000  0.0000
 2001 212    93    89    285  4.4211  0.0211  2.5498  1.0039  0.3416 0.10205  4.295  9.500 25.223 20.679  0.0000  0.0000  0.0000
 2001 213    94    90    314  5.0360  0.0253  2.8527  1.1499  0.3971 0.13596  4.528 10.165 25.573 21.092  0.0000  0.0000  0.0000
 2001 214    95    91    351  6.3558  0.0314  3.5444  1.4631  0.5173 0.19813  4.820 10.981 26.384 22.067  0.0000  0.0000  0.0000
 2001 215    96    92    392  7.0488  0.0332  3.9116  1.6445  0.5090 0.24780  5.129 11.830 25.720 20.285  0.0000  0.0000  0.0000
 2001 216    97    93    437  7.6024  0.0362  4.1934  1.7919  0.4990 0.29499  5.437 12.664 24.491 18.983  0.0000  0.0000  0.0000
 2001 217    98    94    476  7.0472  0.0453  3.7938  1.6605  0.5067 0.29947  5.707 13.356 23.990 19.626  0.0000  0.0000  0.0000
 2001 218    99    95    500  4.5929  0.0443  2.4298  1.0878  0.3487 0.20695  5.863 13.747 22.477 17.737  0.0000  0.0000  0.0000
 2001 219   100    96    522  3.9092  0.0178  2.1148  0.9632  0.1553 0.18196  6.011 14.125 14.828 10.660  0.0000  0.0000  0.0000
 2001 220   101    97    548  4.6093  0.0214  2.5095  1.1248  0.1834 0.22408  6.180 14.553 16.296 10.529  0.0000  0.0000  0.0000
 2001 221   102    98    563  2.9681  0.0339  1.5152  0.7359  0.1946 0.13562  6.255 14.741 16.524 13.502  0.0000  0.0000  0.0000
 2001 222   103    99    582  3.6369  0.0455  1.8843  0.8765  0.2593 0.17849  6.352 14.982 17.728 15.383  0.0000  0.0000  0.0000
 2001 223   104   100    610  5.0839  0.0468  2.7018  1.2046  0.3092 0.27601  6.518 15.394 18.740 15.201  0.0000  0.0000  0.0000
 2001 224   105   101    661  9.0033  0.0669  4.8063  2.0784  0.5776 0.53438  6.830 16.165 22.576 17.876  0.0000  0.0000  0.0000
 2001 225   106   102    683  4.6256  0.0839  2.2655  1.0997  0.4462 0.25495  6.923 16.391 21.707 18.945  0.0000  0.0000  0.0000
 2001 226   107   103    730  8.5927  0.0888  4.4339  1.9853  0.6342 0.54383  7.187 17.034 22.258 19.050  0.0000  0.0000  0.0000
 2001 227   108   104    746  3.8103  0.0967  1.7521  0.9453  0.4257 0.17080  7.216 17.090 20.382 18.777  0.0000  0.0000  0.0000
 2001 228   109   105    756  3.6754  0.0941  1.7196  0.9075  0.4033 0.15478  7.241 17.135 19.725 18.186  0.0000  0.0000  0.0000
 2001 229   110   106    767  3.5801  0.0934  1.6996  0.8670  0.3912 0.13833  7.259 17.162 18.735 17.913  0.0000  0.0000  0.0000
 2001 230   111   107    776  2.8720  0.0630  1.3874  0.7068  0.2600 0.10208  7.278 17.196 17.221 14.240  0.0000  0.0000  0.0000
 2001 231   112   108    802  4.8629  0.0509  2.5043  1.1249  0.2671 0.30013  7.419 17.542 15.543 12.764  0.0000  0.0000  0.0000
 2001 232   113   109    829  4.8272  0.0343  2.4760  1.1096  0.2123 0.33690  7.584 17.949 14.255 10.409  0.0000  0.0000  0.0000
 2001 233   114   110    856  4.7956  0.0335  2.4294  1.1073  0.1999 0.34396  7.745 18.343 14.315  9.296  0.0000  0.0000  0.0000
 2001 234   115   111    889  6.1034  0.0476  3.0833  1.4007  0.2795 0.43588  7.936 18.804 15.557 11.498  0.0000  0.0000  0.0000
 2001 235   116   112    911  4.2728  0.0576  2.0518  1.0321  0.2605 0.24270  8.020 19.000 15.234 12.204  0.0000  0.0000  0.0000
 2001 236   117   113    937  5.2229  0.0866  2.5357  1.2340  0.3746 0.30444  8.116 19.220 18.077 14.560  0.0000  0.0000  0.0000
 2001 237   118   114    982  8.2578  0.0852  4.1325  1.8744  0.4696 0.63267  8.359 19.792 19.302 14.160  0.0000  0.0000  0.0000
 2001 238   119   115   1030  9.6601  0.1778  5.2603  1.8482  0.9479 0.82235  8.686 20.432 25.681 20.845  0.0000  0.0000  0.0000
 2001 239   120   116   1063  6.4913  0.0841  2.8602  1.6550  0.3875 0.41464  8.773 20.694 17.810 13.004  0.0000  0.0000  0.0000
[...]
 2010 181    62    58     48  0.2848  0.0014  0.1672  0.0756  0.0168 0.00000  3.584  7.150 14.485 13.562  0.0000  0.0000  0.0000
 2010 182    63    59     50  0.3230  0.0023  0.1891  0.0794  0.0284 0.00000  3.560  7.107 19.840 17.796  0.0000  0.0000  0.0000
 2010 183    64    60     56  1.0008  0.0026  0.6325  0.2177  0.0602 0.00000  3.544  7.228 21.290 18.718  0.0000  0.0000  0.0000
 2010 184    65    61     63  1.2217  0.0034  0.7678  0.2608  0.0835 0.00000  3.526  7.313 24.622 20.135  0.0000  0.0000  0.0000
 2010 185    66    62     70  1.1541  0.0034  0.7234  0.2571  0.0697 0.00000  3.518  7.346 21.388 18.351  0.0000  0.0000  0.0000
 2010 186    67    63     80  1.5454  0.0041  0.9750  0.3360  0.0961 0.00000  3.509  7.392 22.707 19.238  0.0000  0.0000  0.0000
 2010 187    68    64     89  1.5178  0.0052  0.9506  0.3244  0.1097 0.00000  3.491  7.400 23.931 20.494  0.0000  0.0000  0.0000
 2010 188    69    65     94  0.7712  0.0030  0.4814  0.1833  0.0409 0.00000  3.490  7.386 17.369 13.832  0.0000  0.0000  0.0000
 2010 189    70    66     95  0.2133  0.0012  0.1249  0.0558  0.0151 0.00000  3.490  7.370 12.577  8.740  0.0000  0.0000  0.0000
 2010 190    71    67    100  0.8286  0.0017  0.5313  0.1931  0.0298 0.00000  3.497  7.388 14.682 10.081  0.0000  0.0000  0.0000
 2010 191    72    68    104  0.5775  0.0014  0.3672  0.1369  0.0206 0.00000  3.502  7.395 13.080  7.550  0.0000  0.0000  0.0000
 2010 192    73    69    110  1.0342  0.0028  0.6547  0.2417  0.0430 0.00000  3.508  7.400 15.147 12.463  0.0000  0.0000  0.0000
 2010 193    74    70    112  0.3100  0.0014  0.1893  0.0747  0.0181 0.00000  3.508  7.389 12.649  8.272  0.0000  0.0000  0.0000
 2010 194    75    71    113  0.1295  0.0005  0.0749  0.0330  0.0100 0.00000  3.510  7.385  8.785  5.070  0.0000  0.0000  0.0000
 2010 195    76    72    114  0.1787  0.0006  0.1066  0.0445  0.0108 0.00000  3.512  7.381  9.104  5.253  0.0000  0.0000  0.0000
 2010 196    77    73    114  0.0001  0.0003  0.0000  0.0000  0.0078 0.00000  3.510  7.377  7.539  4.350  0.0000  0.0000  0.0000
 2010 197    78    74    114  0.0000  0.0000  0.0000  0.0000  0.0066 0.00000  3.510  7.376  6.008  3.381  0.0000  0.0000  0.0000
 2010 198    79    75    113  0.0000  0.0000  0.0000  0.0000  0.0069 0.00000  3.510  7.376  6.246  3.984  0.0000  0.0000  0.0000
 2010 199    80    76    115  0.2872  0.0021  0.2061  0.0546  0.0221 0.00000  3.516  7.358 12.198 10.633  0.0000  0.0000  0.0000
 2010 200    81    77    116  0.1623  0.0008  0.0783  0.0425  0.0144 0.00000  3.512  7.352  9.757  8.125  0.0000  0.0000  0.0000
 2010 201    82    78    118  0.2912  0.0017  0.1737  0.0675  0.0207 0.00000  3.507  7.339 12.935  9.534  0.0000  0.0000  0.0000
 2010 202    83    79    118  0.1176  0.0005  0.0676  0.0262  0.0127 0.00000  3.507  7.337  8.753  7.419  0.0000  0.0000  0.0000
 2010 203    84    80    118  0.0000  0.0001  0.0000  0.0000  0.0071 0.00000  3.506  7.336  6.311  3.639  0.0000  0.0000  0.0000
 2010 204    85    81    119  0.1621  0.0009  0.0976  0.0374  0.0126 0.00000  3.504  7.330 10.262  5.918  0.0000  0.0000  0.0000
 2010 205    86    82    120  0.1060  0.0006  0.0619  0.0234  0.0116 0.00000  3.503  7.327  9.120  6.444  0.0000  0.0000  0.0000
 2010 206    87    83    123  0.5201  0.0010  0.3261  0.1223  0.0205 0.00000  3.510  7.335  9.846  8.641  0.0000  0.0000  0.0000
 2010 207    88    84    127  0.7033  0.0015  0.4432  0.1647  0.0245 0.00000  3.518  7.343 12.443  8.020  0.0000  0.0000  0.0000
 2010 208    89    85    132  0.7828  0.0019  0.4932  0.1826  0.0277 0.00000  3.525  7.350 13.460  7.759  0.0000  0.0000  0.0000
 2010 209    90    86    140  1.3145  0.0035  0.8224  0.3037  0.0562 0.00000  3.533  7.354 16.505 12.309  0.0000  0.0000  0.0000
 2010 210    91    87    146  0.8620  0.0023  0.5410  0.1995  0.0343 0.00000  3.538  7.356 14.061  9.290  0.0000  0.0000  0.0000
 2010 211    92    88    153  1.4064  0.0073  0.8583  0.3193  0.0973 0.00000  3.527  7.321 21.041 16.871  0.0000  0.0000  0.0000
 2010 212    93    89    159  0.9770  0.0022  0.6154  0.2310  0.0355 0.00000  3.534  7.330 12.799  9.197  0.0000  0.0000  0.0000
 2010 213    94    90    159  0.1272  0.0006  0.0750  0.0283  0.0129 0.00000  3.533  7.328  8.268  4.763  0.0000  0.0000  0.0000
 2010 214    95    91    160  0.1534  0.0006  0.0917  0.0340  0.0133 0.00000  3.533  7.326  8.434  4.859  0.0000  0.0000  0.0000
 2010 215    96    92    159  0.0000  0.0002  0.0000  0.0000  0.0095 0.00000  3.532  7.324  6.461  2.917  0.0000  0.0000  0.0000
 2010 216    97    93    160  0.0375  0.0004  0.0173  0.0064  0.0114 0.00000  3.531  7.320  7.731  4.453  0.0000  0.0000  0.0000
 2010 217    98    94    162  0.4806  0.0016  0.2984  0.1096  0.0246 0.00000  3.532  7.319 11.160  8.251  0.0000  0.0000  0.0000
 2010 218    99    95    167  0.6919  0.0017  0.4355  0.1595  0.0259 0.00000  3.535  7.323 11.736  6.759  0.0000  0.0000  0.0000
 2010 219   100    96    171  0.6506  0.0018  0.4077  0.1491  0.0273 0.00000  3.538  7.324 11.828  7.660  0.0000  0.0000  0.0000
 2010 220   101    97    174  0.5152  0.0019  0.3188  0.1170  0.0282 0.00000  3.538  7.321 11.358  8.916  0.0000  0.0000  0.0000
 2010 221   102    98    180  1.0409  0.0025  0.6567  0.2420  0.0366 0.00000  3.543  7.327 13.288  7.650  0.0000  0.0000  0.0000
 2010 222   103    99    187  1.0857  0.0027  0.6844  0.2541  0.0393 0.00000  3.548  7.332 13.620  7.841  0.0000  0.0000  0.0000
 2010 223   104   100    195  1.3493  0.0040  0.8450  0.3148  0.0583 0.00000  3.551  7.332 15.486 10.824  0.0000  0.0000  0.0000
 2010 224   105   101    202  1.5196  0.0121  0.8995  0.3436  0.1537 0.00000  3.524  7.269 25.769 19.332  0.0000  0.0000  0.0000
 2010 225   106   102    204  0.2141  0.0010  0.1269  0.0479  0.0207 0.00000  3.523  7.266  9.204  6.783  0.0000  0.0000  0.0000
 2010 226   107   103    203  0.0000  0.0003  0.0000  0.0000  0.0133 0.00000  3.522  7.263  7.156  4.119  0.0000  0.0000  0.0000
 2010 227   108   104    203  0.0000  0.0000  0.0000  0.0000  0.0118 0.00000  3.521  7.263  6.036  3.474  0.0000  0.0000  0.0000
 2010 228   109   105    216  2.0311  0.0048  1.2752  0.4727  0.0790 0.00202  3.538  7.300 15.605 11.570  0.0000  0.0000  0.0000
 2010 229   110   106    234  2.9430  0.0077  1.8289  0.6779  0.1327 0.00992  3.580  7.412 18.298 14.053  0.0000  0.0000  0.0000
 2010 230   111   107    260  4.3160  0.0128  2.6303  0.9834  0.2520 0.02892  3.668  7.663 22.766 17.558  0.0000  0.0000  0.0000
 2010 231   112   108    277  2.7495  0.0104  1.6812  0.6332  0.1432 0.02538  3.728  7.840 18.408 14.498  0.0000  0.0000  0.0000
 2010 232   113   109    295  2.9909  0.0070  1.8483  0.7006  0.1121 0.03273  3.809  8.070 16.516 10.988  0.0000  0.0000  0.0000
 2010 233   114   110    313  2.8817  0.0079  1.7659  0.6778  0.1138 0.03591  3.886  8.288 17.398 10.008  0.0000  0.0000  0.0000
 2010 234   115   111    337  4.0542  0.0164  2.4209  0.9388  0.2338 0.06159  3.991  8.600 20.896 16.183  0.0000  0.0000  0.0000
 2010 235   116   112    368  5.2481  0.0278  3.0186  1.2106  0.4419 0.09902  4.132  9.023 26.609 21.168  0.0000  0.0000  0.0000
 2010 236   117   113    389  3.5879  0.0183  2.0884  0.8607  0.2024 0.07795  4.233  9.328 18.078 15.114  0.0000  0.0000  0.0000
 2010 237   118   114    394  0.9786  0.0071  0.5237  0.2452  0.0694 0.02060  4.251  9.393 11.973  9.903  0.0000  0.0000  0.0000
 2010 238   119   115    406  2.0892  0.0208  1.1805  0.4907  0.1668 0.05217  4.297  9.544 17.772 15.319  0.0000  0.0000  0.0000
 2010 239   120   116    421  2.6616  0.0216  1.5153  0.6258  0.1879 0.07442  4.374  9.780 18.216 15.277  0.0000  0.0000  0.0000
 2010 240   121   117    457  6.2777  0.0393  3.5246  1.4313  0.5260 0.20239  4.599 10.428 24.996 21.258  0.0000  0.0000  0.0000
 2010 241   122   118    478  3.5870  0.0241  1.9930  0.8610  0.2179 0.12345  4.718 10.775 18.385 14.609  0.0000  0.0000  0.0000
 2010 242   123   119    485  1.3086  0.0107  0.6729  0.3297  0.0904 0.04321  4.758 10.883 12.467 10.143  0.0000  0.0000  0.0000
 2010 243   124   120    520  5.9281  0.0385  3.9713  1.0810  0.4063 0.28204  5.081 11.644 21.675 18.030  0.0000  0.0000  0.0000
 2010 244   125   121    533  2.9282  0.0372  1.6635  0.6311  0.2467 0.12891  5.170 11.892 18.005 16.303  0.0000  0.0000  0.0000
 2010 245   126   122    543  2.4025  0.0307  1.2551  0.5657  0.1890 0.10261  5.220 12.072 15.500 14.352  0.0000  0.0000  0.0000
 2010 246   127   123    554  2.4713  0.0259  1.3239  0.5728  0.1732 0.11283  5.287 12.286 16.489 13.008  0.0000  0.0000  0.0000
 2010 247   128   124    556  1.3504  0.0093  0.3453  0.4586  0.0859 0.02913  5.277 12.321 11.127  8.863  0.0000  0.0000  0.0000
 2010 248   129   125    597  6.6262  0.0000  3.8978  1.0955  0.2645 0.76345  6.103 14.495 17.369 12.069  0.0000  0.0000  0.0000
 2010 249   130   126    642  7.5905  0.0357  3.9008  1.8300  0.3369 0.37138  6.274 15.027 18.929 13.136  0.0000  0.0000  0.0000
 2010 250   131   127    683  7.7679  0.0378  3.8943  1.8942  0.3380 0.38454  6.497 15.551 19.060 12.318  0.0000  0.0000  0.0000
 2010 251   132   128    729  8.3483  0.0524  4.3984  1.9197  0.4216 0.45313  6.735 16.097 19.544 14.509  0.0000  0.0000  0.0000
 2010 252   133   129    787 10.3994  0.0704  5.4818  2.3647  0.5908 0.59662  7.001 16.726 21.948 16.104  0.0000  0.0000  0.0000
 2010 253   134   130    862 12.1569  0.0000  6.9654  1.8912  0.7992 1.47684  7.954 19.048 23.106 18.342  0.0000  0.0000  0.0000
 2010 254   135   131    897  6.4770  0.0871  3.9250  1.2485  0.4108 0.44073  8.096 19.302 17.927 14.982  0.0000  0.0000  0.0000
 2010 255   136   132    907  2.6557  0.0384  1.1538  0.7007  0.1775 0.11696  8.078 19.312 12.778 10.322  0.0000  0.0000  0.0000
 2010 256   137   133    908  2.9622  0.0686  1.9317  0.5003  0.2486 0.20522  8.139 19.396 14.891 12.855  0.0000  0.0000  0.0000
 2010 257   138   134    938  5.2996  0.0525  3.1802  1.0324  0.2576 0.38814  8.265 19.649 14.018 11.418  0.0000  0.0000  0.0000
 2010 258   139   135    990  8.6804  0.0738  4.4123  1.9714  0.4198 0.57586  8.358 19.951 18.209 12.722  0.0000  0.0000  0.0000
 2010 259   140   136   1048 11.7115  0.1079  4.6359  3.0954  0.6476 0.62287  8.388 20.184 20.800 15.062  0.0000  0.0000  0.0000
 2010 260   141   137   1088  8.8927  0.0807  3.8805  2.2401  0.4238 0.52126  8.536 20.465 16.847 12.619  0.0000  0.0000  0.0000
 2010 261   142   138   1118  6.3691  0.0541  2.7866  1.6232  0.2732 0.37980  8.638 20.667 14.499  9.739  0.0000  0.0000  0.0000
 2010 262   143   139   1173 10.5874  0.1033  5.1279  2.4704  0.5485 0.73681  8.805 21.028 18.969 13.500  0.0000  0.0000  0.0000
 2010 263   144   140   1239 12.3006  0.1444  6.0550  2.8028  0.7826 0.91410  8.989 21.432 22.536 15.509  0.0000  0.0000  0.0000
 2010 264   145   141   1289 10.3259  0.1962  4.8281  2.5104  0.8471 0.69358  9.091 21.637 22.610 17.804  0.0000  0.0000  0.0000
 2010 265   146   142   1356 13.4089  0.2402  6.4041  3.1613  1.1308 0.98899  9.249 21.970 23.190 19.584  0.0000  0.0000  0.0000
 2010 266   147   143   1373  4.5915  0.1657  1.8699  1.2699  0.4842 0.17836  9.239 21.911 17.481 15.111  0.0000  0.0000  0.0000
 2010 267   148   144   1419  8.8484  0.1178  4.2709  2.1433  0.5018 0.69273  9.369 22.196 17.571 12.618  0.0000  0.0000  0.0000
 2010 268   149   145   1440  4.5265  0.0737  2.0090  1.1862  0.2690 0.30301  9.419 22.296 14.702  7.871  0.0000  0.0000  0.0000
 2010 269   150   146   1479  7.3791  0.1074  3.5367  1.7936  0.4203 0.58688  9.521 22.519 17.382 10.477  0.0000  0.0000  0.0000
 2010 270   151   147   1524  9.1990  0.2043  4.3862  2.2040  0.7285 0.67566  9.608 22.699 19.808 15.947  0.0000  0.0000  0.0000
 2010 271   152   148   1603 14.4844  0.2686  7.2466  3.1871  1.1796 1.29222  9.809 23.140 23.644 18.328  0.0000  0.0000  0.0000
 2010 272   153   149   1627  5.8148  0.1855  2.5437  1.5470  0.5238 0.27292  9.815 23.125 17.453 13.872  0.0000  0.0000  0.0000
 2010 273   154   150   1693 12.1764  0.2187  6.1328  2.7647  0.7667 1.08135  9.980 23.488 18.732 14.653  0.0000  0.0000  0.0000
 2010 274   155   151   1732  8.1299  0.1562  3.8066  2.0098  0.4657 0.66016 10.071 23.682 15.813 11.236  0.0000  0.0000  0.0000
 2010 275   156   152   1781  9.5932  0.1901  4.6787  2.2723  0.5475 0.84509 10.186 23.930 16.179 12.168  0.0000  0.0000  0.0000
 2010 276   157   153   1828  8.9915  0.2010  4.4133  2.0960  0.5219 0.85163 10.295 24.165 17.382 10.707  7.0904  8.9853 38.1998
 2010 277   158   154   1891 11.7715  0.2637  6.5310  2.2631  0.7317 1.34116 10.534 24.596 19.097 13.095  6.9444 10.3200 37.7775
 2010 278   159   155   1959 12.3367  0.3045  6.9689  2.2315  0.8099 1.49407 10.778 25.036 20.487 13.096  6.8619 11.0741 37.5389
 2010 279   160   156   2039 15.0328  0.4327  7.9958  2.9010  1.2026 1.71615 10.996 25.445 22.960 16.597  6.6197 13.5888 36.5380
 2010 280   161   157   2056  6.3965  0.4205  2.5499  1.8628  0.7142 0.22138 10.876 25.226 17.662 15.102  6.5607 14.1223 36.3736
 2010 281   162   158   2127 12.4740  0.4395  6.4123  2.6002  0.9391 1.30541 10.961 25.439 19.305 15.250  6.5235 14.4692 36.2590
 2010 282   163   159   2153 10.1623  0.4542  4.5977  2.4989  0.8335 0.77829 10.926 25.423 18.453 14.717  6.5208 14.4715 36.2738
 2010 283   164   160   2210 11.3144  0.4145  5.6201  2.4944  0.7582 1.14641 10.984 25.586 17.768 13.142  6.5840 13.8144 36.5353
 2010 284   165   161   2274 11.7192  0.4573  6.4266  2.2644  0.8226 1.42695 11.162 25.875 18.573 13.483  6.6094 13.5418 36.6495
 2010 285   166   162   2368 16.0717  0.6130  9.5701  2.5159  1.2829 2.26251 11.482 26.397 21.704 16.434  6.5435 14.2539 36.3490
 2010 286   167   163   2458 17.9735  0.7678 10.6728  2.7057  1.6977 2.58224 11.804 26.917 24.327 18.628  6.4726 15.1482 35.8980
 2010 287   168   164   2480  7.9127  0.7984  4.2331  1.8124  1.1252 0.40697 11.706 26.642 19.891 17.789  6.4182 15.7807 35.6056
 2010 288   169   165   2519  8.1225  0.5818  4.4926  1.6412  0.7177 0.90470 11.748 26.661 19.217 11.127  6.5020 14.9368 35.9257
 2010 289   170   166   2523  5.9573  0.6989  3.2779  1.5228  0.7883 0.13750 11.621 26.349 17.145 14.686  6.5043 14.8548 35.9931
 2010 290   171   167   2585 11.2813  0.6221  6.8868  1.8635  0.8126 1.49229 11.786 26.567 17.628 12.779  6.5453 14.4080 36.1839
 2010 291   172   168   2653 13.2813  0.7134  8.2766  2.0046  1.0206 1.93730 11.997 26.880 20.083 13.699  6.5584 14.2420 36.2680
 2010 292   173   169   2728 14.1225  0.7924  8.9124  2.0650  1.1486 2.08907 12.203 27.184 21.126 14.348  6.5587 14.2088 36.2993
 2010 293   174   170   2822 17.7049  0.7305 10.5992  2.3365  1.7102 2.57331 12.525 27.753 23.464 17.933  6.5082 14.7927 36.0312
 2010 294   175   171   2909 18.7163  0.8131 11.1030  2.4174  2.0866 2.67096 12.838 28.287 25.912 19.523  6.4613 15.4231 35.6937
 2010 295   176   172   2965 15.3609  1.2954  9.2998  2.5822  1.9172 1.63567 12.902 28.214 23.754 19.827  6.4174 16.0373 35.3541
 2010 296   177   173   2998 13.7429  1.1040  8.3033  2.5205  1.2980 1.37183 12.958 28.153 20.291 15.721  6.4148 16.0016 35.4061
 2010 297   178   174   3036 11.4403  1.1487  6.8151  2.2991  1.2726 0.82443 12.922 27.922 20.989 15.918  6.4097 15.9999 35.4397
 2010 298   179   175   3089 13.2792  1.2117  8.5454  2.2807  1.3911 1.19710 12.945 27.780 20.274 16.595  6.3971 16.0998 35.4186
 2010 299   180   176   3146 12.1255  1.0896  7.6907  2.1598  1.1093 1.30018 12.985 27.714 19.820 13.817  6.4195 15.8283 35.5497
 2010 300   181   177   3202 13.9669  1.3559  9.2241  2.2399  1.6313 1.31862 12.997 27.564 21.767 17.800  6.3975 16.0767 35.4388
 2010 301   182   178   3273 16.4881  1.0796 10.2190  2.5298  1.8530 1.75062 13.117 27.679 23.556 18.088  6.3782 16.3049 35.3315
 2010 302   183   179   3276  6.4219  1.3304  4.1873  1.6279  1.1325 0.00000 12.926 27.158 19.226 15.865  6.3786 16.2657 35.3683
 2010 303   184   180   3330 12.7306  1.2697  8.5983  2.2121  1.2629 1.15908 12.920 26.999 19.620 15.008  6.3874 16.1383 35.4402
 2010 304   185   181   3387 14.9565  1.0199  9.4428  2.3101  1.6244 1.55894 13.028 27.099 22.248 16.706  6.3800 16.2046 35.4201
 2010 305   186   182   3452 15.5994  0.2120  9.1172  2.2823  1.8099 1.56093 13.342 27.590 22.900 17.714  6.3664 16.3635 35.3467
 2010 306   187   183   3507 15.9961  0.0225  9.1435  2.2452  1.8815 1.71436 13.710 28.204 24.242 17.410  6.3570 16.4662 35.3026
 2010 307   188   184   3574 16.7245  1.8231 10.6655  2.8689  2.4915 1.41759 13.628 27.894 27.535 20.416  6.3398 16.7793 35.0969
 2010 308   189   185   3598 14.0309  1.9565  8.9134  2.4758  2.7038 0.76345 13.489 27.388 28.717 22.277  6.3303 17.1207 34.8150
 2010 309   190   186   3643 16.1516  1.4914 10.1717  2.6252  2.1896 1.28137 13.477 27.222 24.711 19.236  6.3166 17.2987 34.7225
 2010 310   191   187   3685 14.6125  1.7114  9.3434  2.7419  1.8760 0.99209 13.370 26.861 23.660 17.541  6.3109 17.3313 34.7257
 2010 311   192   188   3743 15.8322  1.9574 10.0369  2.7463  2.9341 1.04594 13.231 26.424 29.741 22.296  6.3048 17.5961 34.4990
 2010 312   193   189   3769 15.6111  2.0670  9.3347  2.7164  3.5896 0.89504 13.058 25.910 32.607 25.054  6.3174 17.8280 34.1882
 2010 313   194   190   3771  3.4360  1.3353  2.5044  1.1807  0.6866 0.00000 12.830 25.391 13.638 11.204  6.3600 17.3425 34.4076
 2010 314   195   191   3782  9.8367  1.4432  6.5079  1.9745  1.1139 0.72290 12.703 25.055 19.246 12.766  6.3832 17.0421 34.5629
 2010 315   196   192   3814  8.8253  1.4060  5.6401  2.0794  1.0036 0.41717 12.527 24.634 17.977 12.319  6.4099 16.7119 34.7263
 2010 316   197   193   3810  9.7191  1.4800  6.8125  1.9579  1.1982 0.60084 12.405 24.257 18.891 14.021  6.4220 16.5149 34.8478
 2010 317   198   194   3856 11.1792  1.5257  7.6236  2.2872  1.3909 0.72394 12.280 23.895 20.270 15.077  6.4251 16.4077 34.9353
 2010 318   199   195   3841 10.1358  0.0000  5.6309  1.5169  1.5163 1.07114 12.634 24.465 21.029 16.230  6.4197 16.4033 34.9737
 2010 319   200   196   3856 10.7891  1.7546  7.4011  2.3318  1.8210 0.26713 12.437 23.869 21.979 18.326  6.4025 16.5635 34.9207
 2010 320   201   197   3878 11.5339  0.3054  6.7099  2.1440  1.8084 0.49599 12.626 24.029 21.480 18.077  6.3884 16.6875 34.8851
 2010 321   202   198   3899 11.8471  0.0169  6.5813  2.0397  1.9010 0.70443 12.904 24.391 22.970 18.242  6.3757 16.8035 34.8480
 2010 322   203   199   3939 12.3247  0.0000  6.2490  1.8618  1.8571 1.72353 13.330 25.210 23.607 17.410  6.3681 16.8520 34.8470
 2010 323   204   200   3734  7.1937  1.7989  5.1845  1.7165  1.6794 0.00000 12.923 24.081 23.771 17.466  6.3611 16.8989 34.8442
 2010 324   205   201   3577  9.2112  0.6774  5.0235  1.7245  2.3332 0.34253 12.881 23.663 27.225 21.564  6.3503 17.1274 34.6831
 2010 325   206   202   3467  7.9341  1.0830  4.3264  1.6209  2.5262 0.20795 12.657 23.005 26.525 23.981  6.3516 17.3747 34.4277
 2010 326   207   203   3369  6.1600  1.0801  3.5958  1.4708  1.7963 0.11499 12.371 22.304 24.641 20.305  6.3401 17.5263 34.3483
 2010 327   208   204   3281  3.9929  1.3339  2.6601  0.9667  1.6502 0.00000 11.923 21.387 24.309 20.403  6.3319 17.6364 34.2891
 2010 328   209   205   3159  2.9577  1.2638  1.9446  0.5578  1.7846 0.00000 11.462 20.494 26.815 21.870  6.3279 17.7300 34.2206
 2010 329   210   206   3114  3.3615  1.0555  2.0924  0.8042  1.4489 0.00000 11.048 19.708 25.633 19.146  6.3226 17.7757 34.2077
 2010 330   211   207   3049  2.6805  1.0638  1.5491  0.4444  1.8019 0.00000 10.606 18.906 28.514 22.493  6.3208 17.8456 34.1496
 2010 331   212   208   2992  1.8896  0.9914  0.7677  0.2202  1.9208 0.00000 10.144 18.131 30.884 23.716  6.3211 17.8801 34.1131
 2010 332   213   209   2944  0.9009  0.7862  0.6013  0.1725  0.9711 0.00000  9.765 17.495 20.180 16.954  6.3207 17.8724 34.1229
 2010 333   214   210   2909  0.7758  0.7148  0.5203  0.1493  0.8863 0.00000  9.411 16.909 20.878 15.788  6.3213 17.8548 34.1368
 2010 334   215   211   2887  1.0175  0.7244  0.4608  0.1322  1.1840 0.00000  9.042 16.310 26.324 17.901  6.3206 17.8559 34.1400
>>>>>>> origin/master
