*PLANT N BALANCE

*DSSAT Cropping System Model Ver. 4.6.1.000 -release      OCT 11, 2016; 16:00:59
                                                                                
*RUN   1        : UYSB                      CRGRO046 UYSB0849    1              
 MODEL          : CRGRO046 - Soybean                                            
 EXPERIMENT     : UYSB0849 SN late to create DSS                                
 DATA PATH      :                                                               
 TREATMENT  1   : UYSB                      CRGRO046                            
                                                                                
                                                                                
 CROP           : Soybean          CULTIVAR : GM 4 URUGUAY     ECOTYPE :INDETE  
 STARTING DATE  : OCT  9 1990                                                   
 PLANTING DATE  : OCT 12 1990        PLANTS/m2 :  7.0     ROW SPACING :  15.cm  
 WEATHER        : UYTA   1990                                                   
 SOIL           : UYSS0N2002     TEXTURE : -99   -  N20-02    SNIA CLAY RISS    
 SOIL INITIAL C : DEPTH:125cm EXTR. H2O:154.7mm  NO3: 28.7kg/ha  NH4: 24.1kg/ha 
 WATER BALANCE  : AUTOMATIC IRRIGATION - REFILL PROFILE                         
 IRRIGATION     : AUTOMATIC - PLANTING -> MATURITY [ SOIL DEPTH: 0.30m 50.%]    
 NITROGEN BAL.  : SOIL-N, N-UPTAKE & DYNAMIC N-FIXATION SIMULATION              
 N-FERTILIZER   : NO N-FERTILIZER APPLIED                                       
 RESIDUE/MANURE : INITIAL :     0 kg/ha ;       0 kg/ha IN     0 APPLICATIONS   
 ENVIRONM. OPT. : DAYL=    0.00  SRAD=    0.00  TMAX=    0.00  TMIN=    0.00    
                  RAIN=    0.00  CO2 =    0.00  DEW =    0.00  WIND=    0.00    
 SIMULATION OPT : WATER   :Y  NITROGEN:Y  N-FIX:Y  PHOSPH :N  PESTS  :N         
                  PHOTO   :C  ET      :R  INFIL:S  HYDROL :R  SOM    :G         
                  CO2 354ppm  NSWIT   :1  EVAP :S  SOIL   :2  STEMP  :D         
 MANAGEMENT OPT : PLANTING:R  IRRIG   :A  FERT :N  RESIDUE:N  HARVEST:M         
                  WEATHER :M  TILLAGE :N                                        
                                                                                
*SUMMARY OF SOIL AND GENETIC INPUT PARAMETERS                                   
                                                                                
   SOIL LOWER UPPER   SAT  EXTR  INIT   ROOT   BULK     pH    NO3    NH4    ORG 
  DEPTH LIMIT LIMIT    SW    SW    SW   DIST   DENS                          C  
   cm   cm3/cm3    cm3/cm3    cm3/cm3         g/cm3         ugN/g  ugN/g     %  
------------------------------------------------------------------------------- 
  0-  5 0.215 0.440 0.484 0.225 0.282   1.00   1.05   0.40   5.00   1.50   4.64 
  5- 15 0.215 0.440 0.484 0.225 0.282   1.00   1.05   0.40   5.00   1.50   4.64 
 15- 30 0.215 0.440 0.484 0.225 0.282   1.00   1.05   0.40   5.00   1.50   4.64 
 30- 41 0.219 0.365 0.457 0.146 0.262   0.40   1.22   6.80   4.60   1.50   2.74 
 41- 53 0.219 0.365 0.457 0.146 0.262   0.40   1.22   6.80   4.60   1.50   2.74 
 53- 63 0.215 0.287 0.429 0.072 0.287   0.10   1.38   7.30   0.00   1.50   1.07 
 63- 74 0.215 0.287 0.429 0.072 0.287   0.10   1.38   7.30   0.00   1.50   1.07 
 74- 84 0.215 0.287 0.429 0.072 0.287   0.10   1.38   7.30   0.00   1.50   1.07 
 84-110 0.214 0.275 0.424 0.061 0.275   0.10   1.41   7.80   0.00   1.50   0.71 
110-125 0.209 0.312 0.438 0.103 0.312   0.00   1.44   8.00   0.00   1.50   0.35 
                                                                                
TOT-125  26.9  42.3  55.9  15.5  35.2  <--cm   -  kg/ha-->   28.7   24.1 302408 
SOIL ALBEDO    : 0.12      EVAPORATION LIMIT :10.00         MIN. FACTOR  : 1.00 
RUNOFF CURVE # : 0.75      DRAINAGE RATE     : 0.25         FERT. FACTOR : 1.00 
                                                                                
 Soybean    CULTIVAR :UY0141-GM 4 URUGUAY       ECOTYPE :INDETE                 
 CSDVAR :13.39  PPSEN  : 0.29  EMG-FLW:20.80  FLW-FSD:18.00  FSD-PHM : 36.00    
 WTPSD  :0.200  SDPDVR : 1.70  SDFDUR :26.00  PODDUR :10.00  XFRUIT  :  1.00    
 THRESH : 77.0  SDPRO  :0.405  SDLIP   : 0.205                                  


   PLANT COMPONENT  HARVEST     LOST*   TOTAL  BALANCE
   ---------------  -------- kg[N]/ha -------  -------
   Leaf N              1.17    23.15    24.32
   Stem N              8.33     3.97    12.30
   Shell N            20.96    37.80    58.75
   Seed N            187.75     0.00   187.75
   Root N              5.90     6.01    11.91
   Nodule N            2.47     2.96     5.43
   Total N           226.58    73.88   300.47
   N leakage                            31.05
   TOTAL N                                      331.52


   N INPUTS TO SYSTEM                kg[N]/ha
   ------------------                --------
   Seed N At Planting                    0.68
   N2 Fixed                            157.60
   N Uptake from Soil                  173.27
   TOTAL N                                      331.55

   * Lost due to senescence, freeze, pest or disease damage.

*******************************************************************************

*DSSAT Cropping System Model Ver. 4.6.1.000 -release      OCT 11, 2016; 16:00:59
                                                                                
*RUN   2        : UYSB                      CRGRO046 UYSB0849    1              
 MODEL          : CRGRO046 - Soybean                                            
 EXPERIMENT     : UYSB0849 SN late to create DSS                                
 DATA PATH      :                                                               
 TREATMENT  1   : UYSB                      CRGRO046                            
                                                                                
                                                                                
 CROP           : Soybean          CULTIVAR : GM 4 URUGUAY     ECOTYPE :INDETE  
 STARTING DATE  : OCT  9 1991                                                   
 PLANTING DATE  : OCT 12 1991        PLANTS/m2 :  7.0     ROW SPACING :  15.cm  
 WEATHER        : UYTA9101                                                      
 SOIL           : UYSS0N2002     TEXTURE : -99   -  N20-02    SNIA CLAY RISS    
 SOIL INITIAL C : DEPTH:125cm EXTR. H2O:154.7mm  NO3: 28.7kg/ha  NH4: 24.1kg/ha 
 WATER BALANCE  : AUTOMATIC IRRIGATION - REFILL PROFILE                         
 IRRIGATION     : AUTOMATIC - PLANTING -> MATURITY [ SOIL DEPTH: 0.30m 50.%]    
 NITROGEN BAL.  : SOIL-N, N-UPTAKE & DYNAMIC N-FIXATION SIMULATION              
 N-FERTILIZER   : NO N-FERTILIZER APPLIED                                       
 RESIDUE/MANURE : INITIAL :     0 kg/ha ;       0 kg/ha IN     0 APPLICATIONS   
 ENVIRONM. OPT. : DAYL=    0.00  SRAD=    0.00  TMAX=    0.00  TMIN=    0.00    
                  RAIN=    0.00  CO2 =    0.00  DEW =    0.00  WIND=    0.00    
 SIMULATION OPT : WATER   :Y  NITROGEN:Y  N-FIX:Y  PHOSPH :N  PESTS  :N         
                  PHOTO   :C  ET      :R  INFIL:S  HYDROL :R  SOM    :G         
                  CO2 356ppm  NSWIT   :1  EVAP :S  SOIL   :2  STEMP  :D         
 MANAGEMENT OPT : PLANTING:R  IRRIG   :A  FERT :N  RESIDUE:N  HARVEST:M         
                  WEATHER :M  TILLAGE :N                                        
                                                                                
*SUMMARY OF SOIL AND GENETIC INPUT PARAMETERS                                   
                                                                                
   SOIL LOWER UPPER   SAT  EXTR  INIT   ROOT   BULK     pH    NO3    NH4    ORG 
  DEPTH LIMIT LIMIT    SW    SW    SW   DIST   DENS                          C  
   cm   cm3/cm3    cm3/cm3    cm3/cm3         g/cm3         ugN/g  ugN/g     %  
------------------------------------------------------------------------------- 
  0-  5 0.215 0.440 0.484 0.225 0.282   1.00   1.05   0.40   5.00   1.50   4.64 
  5- 15 0.215 0.440 0.484 0.225 0.282   1.00   1.05   0.40   5.00   1.50   4.64 
 15- 30 0.215 0.440 0.484 0.225 0.282   1.00   1.05   0.40   5.00   1.50   4.64 
 30- 41 0.219 0.365 0.457 0.146 0.262   0.40   1.22   6.80   4.60   1.50   2.74 
 41- 53 0.219 0.365 0.457 0.146 0.262   0.40   1.22   6.80   4.60   1.50   2.74 
 53- 63 0.215 0.287 0.429 0.072 0.287   0.10   1.38   7.30   0.00   1.50   1.07 
 63- 74 0.215 0.287 0.429 0.072 0.287   0.10   1.38   7.30   0.00   1.50   1.07 
 74- 84 0.215 0.287 0.429 0.072 0.287   0.10   1.38   7.30   0.00   1.50   1.07 
 84-110 0.214 0.275 0.424 0.061 0.275   0.10   1.41   7.80   0.00   1.50   0.71 
110-125 0.209 0.312 0.438 0.103 0.312   0.00   1.44   8.00   0.00   1.50   0.35 
                                                                                
TOT-125  26.9  42.3  55.9  15.5  35.2  <--cm   -  kg/ha-->   28.7   24.1 302408 
SOIL ALBEDO    : 0.12      EVAPORATION LIMIT :10.00         MIN. FACTOR  : 1.00 
RUNOFF CURVE # : 0.75      DRAINAGE RATE     : 0.25         FERT. FACTOR : 1.00 
                                                                                
 Soybean    CULTIVAR :UY0141-GM 4 URUGUAY       ECOTYPE :INDETE                 
 CSDVAR :13.39  PPSEN  : 0.29  EMG-FLW:20.80  FLW-FSD:18.00  FSD-PHM : 36.00    
 WTPSD  :0.200  SDPDVR : 1.70  SDFDUR :26.00  PODDUR :10.00  XFRUIT  :  1.00    
 THRESH : 77.0  SDPRO  :0.405  SDLIP   : 0.205                                  


   PLANT COMPONENT  HARVEST     LOST*   TOTAL  BALANCE
   ---------------  -------- kg[N]/ha -------  -------
   Leaf N              0.91    19.07    19.98
   Stem N              6.41     3.25     9.66
   Shell N            18.92    34.08    53.00
   Seed N            185.63     0.00   185.63
   Root N              4.50     5.73    10.23
   Nodule N            1.89     3.83     5.72
   Total N           218.26    65.95   284.21
   N leakage                            19.19
   TOTAL N                                      303.40


   N INPUTS TO SYSTEM                kg[N]/ha
   ------------------                --------
   Seed N At Planting                    0.68
   N2 Fixed                            127.62
   N Uptake from Soil                  175.15
   TOTAL N                                      303.45

   * Lost due to senescence, freeze, pest or disease damage.

*******************************************************************************

*DSSAT Cropping System Model Ver. 4.6.1.000 -release      OCT 11, 2016; 16:00:59
                                                                                
*RUN   3        : UYSB                      CRGRO046 UYSB0849    1              
 MODEL          : CRGRO046 - Soybean                                            
 EXPERIMENT     : UYSB0849 SN late to create DSS                                
 DATA PATH      :                                                               
 TREATMENT  1   : UYSB                      CRGRO046                            
                                                                                
                                                                                
 CROP           : Soybean          CULTIVAR : GM 4 URUGUAY     ECOTYPE :INDETE  
 STARTING DATE  : OCT  8 1992                                                   
 PLANTING DATE  : OCT 11 1992        PLANTS/m2 :  7.0     ROW SPACING :  15.cm  
 WEATHER        : UYTA9201                                                      
 SOIL           : UYSS0N2002     TEXTURE : -99   -  N20-02    SNIA CLAY RISS    
 SOIL INITIAL C : DEPTH:125cm EXTR. H2O:154.7mm  NO3: 28.7kg/ha  NH4: 24.1kg/ha 
 WATER BALANCE  : AUTOMATIC IRRIGATION - REFILL PROFILE                         
 IRRIGATION     : AUTOMATIC - PLANTING -> MATURITY [ SOIL DEPTH: 0.30m 50.%]    
 NITROGEN BAL.  : SOIL-N, N-UPTAKE & DYNAMIC N-FIXATION SIMULATION              
 N-FERTILIZER   : NO N-FERTILIZER APPLIED                                       
 RESIDUE/MANURE : INITIAL :     0 kg/ha ;       0 kg/ha IN     0 APPLICATIONS   
 ENVIRONM. OPT. : DAYL=    0.00  SRAD=    0.00  TMAX=    0.00  TMIN=    0.00    
                  RAIN=    0.00  CO2 =    0.00  DEW =    0.00  WIND=    0.00    
 SIMULATION OPT : WATER   :Y  NITROGEN:Y  N-FIX:Y  PHOSPH :N  PESTS  :N         
                  PHOTO   :C  ET      :R  INFIL:S  HYDROL :R  SOM    :G         
                  CO2 356ppm  NSWIT   :1  EVAP :S  SOIL   :2  STEMP  :D         
 MANAGEMENT OPT : PLANTING:R  IRRIG   :A  FERT :N  RESIDUE:N  HARVEST:M         
                  WEATHER :M  TILLAGE :N                                        
                                                                                
*SUMMARY OF SOIL AND GENETIC INPUT PARAMETERS                                   
                                                                                
   SOIL LOWER UPPER   SAT  EXTR  INIT   ROOT   BULK     pH    NO3    NH4    ORG 
  DEPTH LIMIT LIMIT    SW    SW    SW   DIST   DENS                          C  
   cm   cm3/cm3    cm3/cm3    cm3/cm3         g/cm3         ugN/g  ugN/g     %  
------------------------------------------------------------------------------- 
  0-  5 0.215 0.440 0.484 0.225 0.282   1.00   1.05   0.40   5.00   1.50   4.64 
  5- 15 0.215 0.440 0.484 0.225 0.282   1.00   1.05   0.40   5.00   1.50   4.64 
 15- 30 0.215 0.440 0.484 0.225 0.282   1.00   1.05   0.40   5.00   1.50   4.64 
 30- 41 0.219 0.365 0.457 0.146 0.262   0.40   1.22   6.80   4.60   1.50   2.74 
 41- 53 0.219 0.365 0.457 0.146 0.262   0.40   1.22   6.80   4.60   1.50   2.74 
 53- 63 0.215 0.287 0.429 0.072 0.287   0.10   1.38   7.30   0.00   1.50   1.07 
 63- 74 0.215 0.287 0.429 0.072 0.287   0.10   1.38   7.30   0.00   1.50   1.07 
 74- 84 0.215 0.287 0.429 0.072 0.287   0.10   1.38   7.30   0.00   1.50   1.07 
 84-110 0.214 0.275 0.424 0.061 0.275   0.10   1.41   7.80   0.00   1.50   0.71 
110-125 0.209 0.312 0.438 0.103 0.312   0.00   1.44   8.00   0.00   1.50   0.35 
                                                                                
TOT-125  26.9  42.3  55.9  15.5  35.2  <--cm   -  kg/ha-->   28.7   24.1 302408 
SOIL ALBEDO    : 0.12      EVAPORATION LIMIT :10.00         MIN. FACTOR  : 1.00 
RUNOFF CURVE # : 0.75      DRAINAGE RATE     : 0.25         FERT. FACTOR : 1.00 
                                                                                
 Soybean    CULTIVAR :UY0141-GM 4 URUGUAY       ECOTYPE :INDETE                 
 CSDVAR :13.39  PPSEN  : 0.29  EMG-FLW:20.80  FLW-FSD:18.00  FSD-PHM : 36.00    
 WTPSD  :0.200  SDPDVR : 1.70  SDFDUR :26.00  PODDUR :10.00  XFRUIT  :  1.00    
 THRESH : 77.0  SDPRO  :0.405  SDLIP   : 0.205                                  


   PLANT COMPONENT  HARVEST     LOST*   TOTAL  BALANCE
   ---------------  -------- kg[N]/ha -------  -------
   Leaf N              1.11    21.83    22.93
   Stem N              6.59     3.75    10.35
   Shell N            20.68    27.76    48.44
   Seed N            227.79     0.00   227.79
   Root N              5.29     7.02    12.31
   Nodule N            2.46     3.65     6.11
   Total N           263.92    64.01   327.93
   N leakage                            21.32
   TOTAL N                                      349.26


   N INPUTS TO SYSTEM                kg[N]/ha
   ------------------                --------
   Seed N At Planting                    0.68
   N2 Fixed                            172.92
   N Uptake from Soil                  175.67
   TOTAL N                                      349.27

   * Lost due to senescence, freeze, pest or disease damage.

*******************************************************************************
