*PLANT C OUTPUT FILE

*DSSAT Cropping System Model Ver. 4.6.1.000 -release      OCT 19, 2016; 10:03:17
                                                                                
*RUN   1        : UYSB                      CRGRO046 UYSB0906    1              
 MODEL          : CRGRO046 - Soybean                                            
 EXPERIMENT     : UYSB0906 SN late to create DSS                                
 DATA PATH      :                                                               
 TREATMENT  1   : UYSB                      CRGRO046                            
  
@YEAR DOY   DAS   DAP   TWAD    PHAD    CMAD    CGRD    GRAD    MRAD    CHAD   CL%D   CS%D   TGNN   TGAV    GN%D    GL%D    GC%D
 2000 249     4     0      0  0.0000  0.0000  0.0000  0.0000  0.0000 0.00000  0.000  0.000 16.946 10.210  0.0000  0.0000  0.0000
 2000 250     5     1      0  0.0000  0.0000  0.0000  0.0000  0.0000 0.00000  0.000  0.000 18.274 11.951  0.0000  0.0000  0.0000
 2000 251     6     2      0  0.0000  0.0000  0.0000  0.0000  0.0000 0.00000  0.000  0.000 23.018 17.144  0.0000  0.0000  0.0000
 2000 252     7     3      0  0.0000  0.0000  0.0000  0.0000  0.0000 0.00000  0.000  0.000 24.543 19.678  0.0000  0.0000  0.0000
 2000 253     8     4      0  0.0000  0.0000  0.0000  0.0000  0.0000 0.00000  0.000  0.000 20.739 17.832  0.0000  0.0000  0.0000
 2000 254     9     5      0  0.0000  0.0000  0.0000  0.0000  0.0000 0.00000  0.000  0.000 22.415 19.645  0.0000  0.0000  0.0000
 2000 255    10     6      0  0.0000  0.0000  0.0000  0.0000  0.0000 0.00000  0.000  0.000 20.049 16.330  0.0000  0.0000  0.0000
 2000 256    11     7      0  0.0000  0.0000  0.0000  0.0000  0.0000 0.00000  0.000  0.000 13.383 10.924  0.0000  0.0000  0.0000
 2000 257    12     8      8  0.0000  0.0000  0.0000  0.0000  0.0000 0.00000  3.996  7.991  8.928  7.769  0.0000  0.0000  0.0000
 2000 258    13     9      8  0.0159  0.0001  0.0091  0.0042  0.0012 0.00000  3.986  7.971 10.217  9.232  0.0000  0.0000  0.0000
 2000 259    14    10      8  0.0348  0.0002  0.0204  0.0091  0.0020 0.00000  3.967  7.930 13.655 11.719  0.0000  0.0000  0.0000
 2000 260    15    11      8  0.0711  0.0003  0.0440  0.0169  0.0034 0.00000  3.943  7.877 15.639 13.455  0.0000  0.0000  0.0000
 2000 261    16    12      9  0.0888  0.0003  0.0565  0.0195  0.0041 0.00000  3.919  7.832 17.457 13.438  0.0000  0.0000  0.0000
 2000 262    17    13      9  0.0552  0.0004  0.0336  0.0128  0.0043 0.00000  3.884  7.758 17.423 16.223  0.0000  0.0000  0.0000
 2000 263    18    14     10  0.1379  0.0005  0.1089  0.0203  0.0083 0.00000  3.863  7.694 20.118 17.858  0.0000  0.0000  0.0000
 2000 264    19    15     11  0.1014  0.0005  0.0726  0.0179  0.0069 0.00000  3.838  7.639 20.019 17.122  0.0000  0.0000  0.0000
 2000 265    20    16     11  0.0826  0.0004  0.0457  0.0196  0.0050 0.00000  3.801  7.590 16.678 14.946  0.0000  0.0000  0.0000
 2000 266    21    17     12  0.1511  0.0003  0.0964  0.0316  0.0062 0.00000  3.784  7.582 17.196 13.376  0.0000  0.0000  0.0000
 2000 267    22    18     13  0.1430  0.0004  0.0920  0.0288  0.0072 0.00000  3.762  7.563 19.104 14.434  0.0000  0.0000  0.0000
 2000 268    23    19     13  0.0707  0.0001  0.0451  0.0151  0.0026 0.00000  3.759  7.562 11.457  9.014  0.0000  0.0000  0.0000
 2000 269    24    20     14  0.0615  0.0001  0.0393  0.0132  0.0022 0.00000  3.756  7.559 11.519  7.482  0.0000  0.0000  0.0000
 2000 270    25    21     14  0.0947  0.0002  0.0616  0.0198  0.0034 0.00000  3.751  7.557 13.882  8.887  0.0000  0.0000  0.0000
 2000 271    26    22     16  0.2283  0.0005  0.1501  0.0445  0.0113 0.00000  3.732  7.555 21.202 14.929  0.0000  0.0000  0.0000
 2000 272    27    23     18  0.2907  0.0008  0.1896  0.0567  0.0176 0.00000  3.704  7.539 23.440 17.874  0.0000  0.0000  0.0000
 2000 273    28    24     19  0.2970  0.0010  0.1930  0.0574  0.0200 0.00000  3.671  7.512 24.231 18.840  0.0000  0.0000  0.0000
 2000 274    29    25     21  0.3069  0.0011  0.1996  0.0598  0.0216 0.00000  3.637  7.480 23.507 19.356  0.0000  0.0000  0.0000
 2000 275    30    26     23  0.3119  0.0013  0.1907  0.0707  0.0229 0.00000  3.631  7.421 23.053 19.646  0.0000  0.0000  0.0000
 2000 276    31    27     24  0.1395  0.0011  0.0811  0.0347  0.0123 0.00000  3.616  7.349 18.167 17.208  0.0000  0.0000  0.0000
 2000 277    32    28     25  0.2215  0.0011  0.1352  0.0516  0.0150 0.00000  3.608  7.304 19.401 16.737  0.0000  0.0000  0.0000
 2000 278    33    29     27  0.3157  0.0009  0.1955  0.0738  0.0157 0.00000  3.617  7.291 17.312 15.109  0.0000  0.0000  0.0000
 2000 279    34    30     29  0.3282  0.0007  0.2068  0.0751  0.0133 0.00000  3.628  7.302 16.654 12.745  0.0000  0.0000  0.0000
 2000 280    35    31     31  0.3265  0.0007  0.2081  0.0729  0.0125 0.00000  3.636  7.319 16.466 11.666  0.0000  0.0000  0.0000
 2000 281    36    32     34  0.4443  0.0010  0.2851  0.0947  0.0202 0.00000  3.637  7.343 19.338 14.003  0.0000  0.0000  0.0000
 2000 282    37    33     37  0.5606  0.0014  0.3590  0.1198  0.0290 0.00000  3.632  7.363 20.608 16.089  0.0000  0.0000  0.0000
 2000 283    38    34     38  0.2181  0.0014  0.1275  0.0561  0.0159 0.00000  3.624  7.310 17.178 15.078  0.0000  0.0000  0.0000
 2000 284    39    35     41  0.4861  0.0012  0.3006  0.1164  0.0208 0.00000  3.638  7.310 16.783 13.544  0.0000  0.0000  0.0000
 2000 285    40    36     45  0.6236  0.0014  0.3939  0.1388  0.0285 0.00000  3.642  7.331 19.152 14.452  0.0000  0.0000  0.0000
 2000 286    41    37     51  0.9542  0.0030  0.5948  0.1947  0.0733 0.00000  3.621  7.343 25.500 21.582  0.0000  0.0000  0.0000
 2000 287    42    38     56  0.8423  0.0023  0.5361  0.1770  0.0455 0.00000  3.615  7.361 20.276 16.748  0.0000  0.0000  0.0000
 2000 288    43    39     58  0.3910  0.0025  0.2405  0.0843  0.0304 0.00000  3.593  7.318 18.795 16.692  0.0000  0.0000  0.0000
 2000 289    44    40     61  0.4365  0.0025  0.2713  0.0951  0.0309 0.00000  3.576  7.288 18.753 16.080  0.0000  0.0000  0.0000
 2000 290    45    41     65  0.7523  0.0033  0.4637  0.1670  0.0545 0.00000  3.562  7.267 21.944 18.771  0.0000  0.0000  0.0000
 2000 291    46    42     70  0.8254  0.0037  0.5115  0.1783  0.0608 0.00000  3.546  7.252 21.165 19.204  0.0000  0.0000  0.0000
 2000 292    47    43     75  0.7324  0.0042  0.4491  0.1558  0.0626 0.00000  3.522  7.219 22.496 19.892  0.0000  0.0000  0.0000
 2000 293    48    44     81  1.0090  0.0038  0.6342  0.2198  0.0648 0.00000  3.513  7.230 19.218 18.076  0.0000  0.0000  0.0000
 2000 294    49    45     86  0.9192  0.0052  0.5639  0.1893  0.0843 0.00000  3.486  7.202 24.948 21.022  0.0000  0.0000  0.0000
 2000 295    50    46     98  1.9877  0.0057  1.2416  0.4105  0.1460 0.00000  3.486  7.257 25.659 21.268  0.0000  0.0000  0.0000
 2000 296    51    47    103  0.8971  0.0050  0.5608  0.1939  0.0673 0.00000  3.480  7.226 19.163 17.878  0.0000  0.0000  0.0000
 2000 297    52    48    109  0.8918  0.0047  0.5476  0.1968  0.0617 0.00000  3.472  7.202 18.191 16.726  0.0000  0.0000  0.0000
 2000 298    53    49    115  1.0804  0.0056  0.6720  0.2249  0.0803 0.00000  3.457  7.187 20.844 18.058  0.0000  0.0000  0.0000
 2000 299    54    50    126  1.8556  0.0067  1.2135  0.3596  0.1252 0.00000  3.477  7.217 21.203 19.273  0.0000  0.0000  0.0000
 2000 300    55    51    137  1.9979  0.0084  1.3290  0.3985  0.1569 0.00000  3.523  7.196 23.046 20.974  0.0000  0.0000  0.0000
 2000 301    56    52    158  3.5863  0.0076  2.2506  0.7786  0.2037 0.00000  3.588  7.245 22.996 18.600  0.0000  0.0000  0.0000
 2000 302    57    53    175  2.9213  0.0059  1.6200  0.7126  0.1239 0.00000  3.577  7.271 18.506 14.610  0.0000  0.0000  0.0000
 2000 303    58    54    191  2.5877  0.0048  1.5722  0.5975  0.0951 0.00000  3.589  7.298 16.370 12.616  0.0000  0.0000  0.0000
 2000 304    59    55    221  4.9393  0.0106  3.0275  1.1076  0.2849 0.00000  3.612  7.328 24.543 18.250  0.0000  0.0000  0.0000
 2000 305    60    56    255  5.6620  0.0138  3.4718  1.2768  0.3529 0.00000  3.626  7.343 24.543 19.465  0.0000  0.0000  0.0000
 2000 306    61    57    270  2.8570  0.0163  1.7501  0.6168  0.2338 0.00734  3.634  7.361 23.242 19.629  0.0000  0.0000  0.0000
 2000 307    62    58    302  5.3535  0.0152  3.2369  1.2311  0.3084 0.03065  3.715  7.608 21.248 18.135  0.0000  0.0000  0.0000
 2000 308    63    59    343  6.7405  0.0148  4.1209  1.5403  0.3306 0.05767  3.848  7.998 21.391 16.382  0.0000  0.0000  0.0000
 2000 309    64    60    376  5.5118  0.0174  3.3259  1.2593  0.2909 0.06154  3.951  8.313 20.369 16.289  0.0000  0.0000  0.0000
 2000 310    65    61    426  8.2432  0.0217  4.9501  1.8952  0.4379 0.11609  4.124  8.825 22.002 17.243  0.0000  0.0000  0.0000
 2000 311    66    62    483  9.5002  0.0305  5.6022  2.1822  0.5837 0.16365  4.314  9.390 23.235 19.048  0.0000  0.0000  0.0000
 2000 312    67    63    520  6.3513  0.0372  3.6336  1.4973  0.4694 0.12764  4.415  9.716 22.380 19.301  0.0000  0.0000  0.0000
 2000 313    68    64    573  9.0640  0.0469  5.1760  2.1110  0.6963 0.21661  4.590 10.246 23.868 21.004  0.0000  0.0000  0.0000
 2000 314    69    65    603  5.3814  0.0446  2.9913  1.2760  0.4247 0.14214  4.672 10.513 20.093 18.554  0.0000  0.0000  0.0000
 2000 315    70    66    676 12.2103  0.0483  7.0260  2.8661  0.7335 0.37415  4.946 11.293 22.049 18.612  0.0000  0.0000  0.0000
 2000 316    71    67    759 13.9723  0.0646  8.2673  3.0748  0.9471 0.49287  5.273 12.127 24.014 19.968  0.0000  0.0000  0.0000
 2000 317    72    68    842 14.8669  0.0866  7.8563  3.4890  1.1454 0.52441  5.498 12.808 24.582 21.466  0.0000  0.0000  0.0000
 2000 318    73    69    910 12.0511  0.0702  6.5281  2.8187  0.7015 0.47630  5.690 13.352 20.315 17.020  0.0000  0.0000  0.0000
 2000 319    74    70    956  8.2809  0.0393  4.5175  2.0165  0.3400 0.34233  5.834 13.726 14.872 11.971  0.0000  0.0000  0.0000
 2000 320    75    71    998  7.5051  0.0353  4.0867  1.8325  0.3021 0.31915  5.956 14.046 14.988 10.833  0.0000  0.0000  0.0000
 2000 321    76    72   1081 14.3694  0.0685  7.9860  3.4238  0.6923 0.65516  6.185 14.640 20.254 14.451  0.0000  0.0000  0.0000
 2000 322    77    73   1191 18.9483  0.1087 10.5680  4.3670  1.1390 0.92064  6.455 15.338 23.490 17.508  0.0000  0.0000  0.0000
 2000 323    78    74   1319 21.8073  0.1441 12.6182  4.6521  1.4875 1.15903  6.786 16.094 25.430 19.017  0.0000  0.0000  0.0000
 2000 324    79    75   1452 22.3217  0.1952 12.9355  4.5682  1.8421 1.25661  7.061 16.749 27.187 21.168  0.0000  0.0000  0.0000
 2000 325    80    76   1563 18.2930  0.1445 10.5941  3.9362  1.0242 1.07855  7.266 17.257 19.830 15.996  0.0000  0.0000  0.0000
 2000 326    81    77   1716 23.1889  0.1917 14.7650  4.3103  1.5193 1.56506  7.548 17.929 24.001 17.730  0.0000  0.0000  0.0000
 2000 327    82    78   1858 22.8478  0.2976 14.0614  4.1473  2.0787 1.55880  7.776 18.446 26.367 21.565  0.0000  0.0000  0.0000
 2000 328    83    79   1995 24.6144  0.3749 13.4610  4.8611  2.8176 1.59128  7.956 18.871 30.129 24.431  0.0000  0.0000  0.0000
 2000 329    84    80   2078 15.1560  0.2463  7.2988  3.7639  1.1417 0.81507  7.954 18.993 19.478 16.790  0.0000  0.0000  0.0000
 2000 330    85    81   2220 22.4155  0.2408 13.6264  4.3184  1.4079 1.67243  8.173 19.501 21.400 16.132  0.0000  0.0000  0.0000
 2000 331    86    82   2406 29.0697  0.0000 15.5979  4.2969  2.4276 4.19499  9.094 21.895 25.795 20.240  0.0000  0.0000  0.0000
 2000 332    87    83   2500 17.5560  0.4946  9.8454  3.3309  2.0444 1.22968  9.156 21.967 25.824 21.129  0.0000  0.0000  0.0000
 2000 333    88    84   2558 12.0196  0.4484  6.7293  2.3698  1.4772 0.71721  9.167 21.933 20.672 19.274  0.0000  0.0000  0.0000
 2000 334    89    85   2646 15.6899  0.3622  8.9851  3.0973  1.3308 1.08943  9.243 22.061 19.824 16.706  0.0000  0.0000  0.0000
 2000 335    90    86   2804 24.3486  0.0000 12.0921  3.4805  1.6649 4.72456 10.176 24.498 20.854 16.481  0.0000  0.0000  0.0000
 2000 336    91    87   2946 23.6620  0.4259 13.6654  4.6403  1.7198 1.90183 10.287 24.685 21.779 16.402  0.0000  0.0000  0.0000
 2000 337    92    88   3142 31.2807  0.0000 16.3124  4.6323  2.7007 4.67118 11.008 26.444 25.114 19.558  0.0000  0.0000  0.0000
 2000 338    93    89   3289 25.4425  0.7171 14.7072  4.6001  2.6164 2.09507 11.070 26.483 25.557 20.109  0.0000  0.0000  0.0000
 2000 339    94    90   3376 16.3723  0.6395  9.4638  2.9943  1.7977 1.15771 11.081 26.426 20.807 18.154  0.0000  0.0000  0.0000
 2000 340    95    91   3541 26.7358  0.0000 13.9890  4.0286  2.1715 3.73987 11.594 27.647 21.598 17.584  0.0000  0.0000  0.0000
 2000 341    96    92   3723 30.8897  0.8767 17.8071  5.3011  3.3861 2.78526 11.677 27.736 27.782 21.043  0.0000  0.0000  0.0000
 2000 342    97    93   3891 30.2571  1.0909 17.1527  5.1745  4.1260 2.55525 11.721 27.728 29.193 23.817  0.0000  0.0000  0.0000
 2000 343    98    94   4020 26.3460  1.2357 14.2004  4.5489  4.3657 2.07510 11.731 27.636 30.375 25.214  0.0000  0.0000  0.0000
 2000 344    99    95   4190 33.3674  1.3461 18.2762  5.7419  5.0958 2.73621 11.775 27.626 30.157 25.749  0.0000  0.0000  0.0000
 2000 345   100    96   4316 29.9645  1.2790 15.5994  5.7144  4.0740 2.22531 11.789 27.573 27.592 23.005  6.3057 20.4711 31.6182
 2000 346   101    97   4405 24.8580  1.4507 12.5350  4.8728  4.2665 1.36067 11.743 27.363 28.460 24.590  6.4006 20.4947 31.0014
 2000 347   102    98   4530 29.2743  1.4196 15.0243  5.5314  4.6772 2.04921 11.742 27.278 30.301 24.389  6.4024 20.4976 30.9872
 2000 348   103    99   4664 32.2656  1.6544 16.0159  5.8894  5.8972 2.35026 11.736 27.188 31.855 27.161  6.5048 20.4986 30.3463
 2000 349   104   100   4761 28.8459  1.6624 14.2555  5.6285  4.8720 1.63721 11.698 27.005 28.362 25.030  6.4890 20.4991 30.4444
 2000 350   105   101   4856 28.4406  1.5129 14.1848  5.6848  4.1718 1.56045 11.676 26.865 27.550 22.570  6.4128 20.4704 30.9499
 2000 351   106   102   4950 23.6877  0.9880 12.3971  4.9330  2.1023 1.27039 11.697 26.832 19.597 15.548  6.4133 19.1371 32.2797
 2000 352   107   103   5077 29.0422  1.2098 14.6721  6.2307  2.9091 1.85475 11.736 26.844 23.032 17.729  6.3694 18.8148 32.8767
 2000 353   108   104   5222 33.6710  1.5608 17.6774  6.5665  4.2826 2.63372 11.791 26.901 27.073 21.340  6.3309 19.1040 32.8279
 2000 354   109   105   5337 29.4342  1.4387 16.4211  5.8123  3.3892 1.91267 11.809 26.868 24.539 18.986  6.3017 19.0534 33.0611
 2000 355   110   106   5446 32.3805  1.6535 16.2600  6.9425  4.2159 1.86201 11.798 26.772 26.820 20.944  6.2778 19.2409 33.0229
 2000 356   111   107   5471 13.1294  0.9894  7.5049  2.6896  2.4350 0.15006 11.760 26.589 20.269 18.298  6.2640 19.0538 33.2963
 2000 357   112   108   5598 31.9195  1.8655 16.6652  6.7500  4.8217 1.28430 11.684 26.342 27.752 22.772  6.2652 19.3106 33.0322
 2000 358   113   109   5644 15.1816  1.2522  8.8271  3.3534  2.4598 0.07179 11.601 26.060 19.635 17.844  6.2599 19.0925 33.2833
 2000 359   114   110   5743 29.3738  1.5831 14.6347  6.8165  3.4983 1.08040 11.543 25.860 24.278 18.832  6.2508 19.0461 33.3861
 2000 360   115   111   5800 30.8461  2.1165 15.2332  6.3873  5.8492 1.17131 11.433 25.540 29.750 25.307  6.2827 19.2437 32.9896
 2000 361   116   112   5879 32.0460  2.2347 15.0213  6.4718  7.2162 1.29729 11.317 25.214 33.183 28.023  6.3418 19.4116 32.4519
 2000 362   117   113   5875 14.8148  1.8981  8.3239  2.9529  3.9541 0.03021 11.153 24.741 26.735 22.793  6.3317 19.5609 32.3659
 2000 363   118   114   5897 22.1705  1.8327 11.2495  5.1714  3.8336 0.00000 10.987 24.267 24.681 21.133  6.3128 19.6237 32.4216
 2000 364   119   115   5909 20.7072  1.7211 11.1671  4.7297  3.4032 0.00000 10.830 23.815 22.847 20.016  6.2944 19.6075 32.5524
 2000 365   120   116   5958 30.6915  1.7358 15.0727  7.1050  4.0944 0.65705 10.719 23.495 24.639 20.446  6.2792 19.6230 32.6318
 2000 366   121   117   6020 30.9475  1.9002 15.2469  7.1757  5.0045 0.58870 10.582 23.111 27.597 22.759  6.2779 19.7314 32.5315
 2001 001   122   118   6134 31.0389  1.9280 15.6897  7.1524  5.2521 0.46372 10.430 22.690 28.110 23.308  6.2820 19.8279 32.4098
 2001 002   123   119   6188 30.5336  1.9231 14.9559  7.2412  5.2548 0.40867 10.274 22.260 28.155 23.209  6.2842 19.9018 32.3218
 2001 003   124   120   6243 30.2289  1.9322 14.4655  7.0440  5.7815 0.38588 10.113 21.819 30.266 24.280  6.2958 19.9648 32.1863
 2001 004   125   121   6262 24.0592  2.1177 11.4265  5.2971  6.5920 0.00000  9.895 21.224 31.600 27.585  6.3351 20.0186 31.8871
 2001 005   126   122   6248 29.7288  2.0202 13.8023  6.9904  6.5914 0.05785  9.690 20.661 30.645 26.487  6.3603 20.0663 31.6818
 2001 006   127   123   6309 28.9012  1.9785 13.3621  6.6999  6.9771 0.00000  9.477 20.079 32.069 27.444  6.3914 20.1093 31.4442
 2001 007   128   124   6277 16.4304  1.8889  8.2038  3.7925  4.9343 0.00000  9.272 19.517 27.446 24.901  6.3973 20.1489 31.3680
 2001 008   129   125   6319 23.4959  1.7187 11.3949  5.8120  4.8093 0.00000  9.088 18.994 26.974 23.174  6.3876 20.1819 31.3954
 2001 009   130   126   6374 26.5929  1.6969 12.8680  6.3147  5.2790 0.00000  8.902 18.469 28.216 23.735  6.3838 20.2111 31.3900
 2001 010   131   127   6369 11.9992  1.3643  6.7726  2.8894  3.0208 0.02160  8.761 18.052 21.809 19.444  6.3772 20.1091 31.5335
 2001 011   132   128   6420 24.3337  1.3144 12.3942  6.2062  3.1378 0.00000  8.622 17.635 21.303 17.862  6.3656 19.9388 31.7764
 2001 012   133   129   6488 23.5419  1.2401 12.3662  6.1359  2.9421 0.00000  8.487 17.235 21.832 16.886  6.3604 19.7323 32.0153
 2001 013   134   130   6547 24.1289  1.4118 12.2651  6.2717  4.0863 0.00000  8.325 16.774 25.634 20.437  6.3467 19.7314 32.1019
 2001 014   135   131   6557 19.7251  1.6098  9.3550  4.7214  5.5434 0.00000  8.131 16.237 28.955 25.407  6.3578 19.7892 31.9748
 2001 015   136   132   6599 24.5420  1.5294 11.6701  6.0118  5.4862 0.00000  7.943 15.714 27.252 24.493  6.3619 19.8428 31.8951
 2001 016   137   133   6624 22.8551  1.4828 10.7781  5.4700  5.6014 0.00000  7.755 15.196 28.523 24.904  6.3682 19.8902 31.8082
 2001 017   138   134   6645 17.2222  1.3425  8.6521  4.1818  4.6026 0.00988  7.584 14.720 25.626 23.333  6.3674 19.9208 31.7827
 2001 018   139   135   6655 15.0450  1.2771  7.6274  3.3779  4.4336 0.01497  7.419 14.259 24.521 23.267  6.3681 19.9415 31.7581
 2001 019   140   136   6676 16.5005  1.2191  8.3525  3.9200  4.2286 0.00627  7.253 13.804 25.248 22.238  6.3628 19.9596 31.7730
 2001 020   141   137   6739 24.1196  1.1121 11.6438  6.6371  3.9434 0.00000  7.095 13.377 24.193 20.000  6.3549 19.9202 31.8616
 2001 021   142   138   6808 23.6561  1.0565 11.5224  6.7589  3.7533 0.00000  6.939 12.962 24.386 19.406  6.3469 19.8668 31.9652
 2001 022   143   139   6834 14.8538  1.0756  7.4400  3.6177  3.9277 0.00689  6.776 12.536 26.265 21.500  6.3427 19.8751 31.9831
 2001 023   144   140   6890 22.6925  0.8706 10.0046  5.9050  5.3009 0.08255  6.666 12.223 28.757 24.243  6.3604 19.8744 31.8730
 2001 024   145   141   6946 21.8890  0.9021  9.6306  5.6706  5.3179 0.06022  6.537 11.880 29.996 24.300  6.3727 19.8809 31.7896
 2001 025   146   142   6995 20.8540  0.9272  8.8787  5.2012  5.7961 0.05844  6.396 11.518 30.549 26.036  6.3898 19.8854 31.6785
 2001 026   147   143   7032 18.0835  0.9917  7.5897  4.2355  5.8894 0.03271  6.229 11.109 31.575 26.883  6.4030 19.8948 31.5866
 2001 027   148   144   7032 10.0787  1.0110  4.8189  1.9674  4.0109 0.00000  6.042 10.666 24.955 23.559  6.4015 19.9073 31.5835
 2001 028   149   145   7038  8.0510  0.8808  4.1818  1.6278  2.8992 0.00000  5.873 10.275 21.166 20.056  6.3975 19.9006 31.6150
 2001 029   150   146   7096 18.2402  0.7066  8.4907  4.9839  3.3910 0.04162  5.748  9.980 24.837 19.573  6.3963 19.8648 31.6584
 2001 030   151   147   7158 18.0245  0.5528  8.7062  3.3692  3.7181 0.09428  5.668  9.779 24.894 21.063  6.3028 20.0475 32.0598
 2001 031   152   148   6958 16.6001  0.8987  7.5175  3.1677  4.6909 0.00000  5.409  8.862 28.750 24.311  6.2408 20.1940 32.3009
 2001 032   153   149   6778 10.9803  0.7699  4.4650  2.1677  4.4668 0.00000  5.151  8.050 28.870 25.505  6.2398 20.2103 32.2910
 2001 033   154   150   6641 10.8827  0.6506  4.1482  1.8150  4.6564 0.00000  4.900  7.340 30.726 26.502  6.2220 20.2626 32.3500
 2001 034   155   151   6529  8.0847  0.4980  3.4669  1.7252  2.9342 0.00000  4.684  6.755 24.491 21.448  6.2217 20.2610 32.3532
 2001 035   156   152   6436  6.6415  0.4285  2.6987  1.2466  2.8470 0.00000  4.476  6.245 26.531 21.342  6.2215 20.2594 32.3562
 2001 036   157   153   6355  5.0355  0.3941  1.7962  0.6086  3.0116 0.00000  4.265  5.785 26.241 23.092  6.2220 20.2608 32.3519
 2001 037   158   154   6285  3.8660  0.3477  0.8505  0.2440  3.1507 0.00000  4.057  5.379 29.390 23.880  6.2224 20.2615 32.3486
 2001 038   159   155   6221  3.0064  0.3296  0.0000  0.0000  3.8224 0.00000  3.837  5.006 32.285 27.276  6.2224 20.2615 32.3486
 2001 039   160   156   6166  1.4618  0.2915  0.0000  0.0000  3.0918 0.00000  3.633  4.677 28.514 25.080  6.2224 20.2615 32.3486
 2001 040   161   157   6122  1.7291  0.2672  0.0000  0.0000  3.3511 0.00000  3.437  4.380 30.604 26.169  6.2224 20.2615 32.3486
 2001 041   162   158   6085  0.8408  0.2481  0.0000  0.0000  3.2809 0.00000  3.249  4.109 29.891 26.422  6.2224 20.2615 32.3486
 2001 042   163   159   6047  1.0501  0.2291  0.0000  0.0000  3.4864 0.00000  3.071  3.863 31.551 27.261  6.2224 20.2615 32.3486

*DSSAT Cropping System Model Ver. 4.6.1.000 -release      OCT 19, 2016; 10:03:17
                                                                                
*RUN   2        : UYSB                      CRGRO046 UYSB0906    1              
 MODEL          : CRGRO046 - Soybean                                            
 EXPERIMENT     : UYSB0906 SN late to create DSS                                
 DATA PATH      :                                                               
 TREATMENT  1   : UYSB                      CRGRO046                            
  
@YEAR DOY   DAS   DAP   TWAD    PHAD    CMAD    CGRD    GRAD    MRAD    CHAD   CL%D   CS%D   TGNN   TGAV    GN%D    GL%D    GC%D
 2001 249     4     0      0  0.0000  0.0000  0.0000  0.0000  0.0000 0.00000  0.000  0.000 16.758 14.140  0.0000  0.0000  0.0000
 2001 250     5     1      0  0.0000  0.0000  0.0000  0.0000  0.0000 0.00000  0.000  0.000 16.765 15.717  0.0000  0.0000  0.0000
 2001 251     6     2      0  0.0000  0.0000  0.0000  0.0000  0.0000 0.00000  0.000  0.000 16.520 13.408  0.0000  0.0000  0.0000
 2001 252     7     3      0  0.0000  0.0000  0.0000  0.0000  0.0000 0.00000  0.000  0.000 14.344 11.265  0.0000  0.0000  0.0000
 2001 253     8     4      0  0.0000  0.0000  0.0000  0.0000  0.0000 0.00000  0.000  0.000 15.123 10.990  0.0000  0.0000  0.0000
 2001 254     9     5      0  0.0000  0.0000  0.0000  0.0000  0.0000 0.00000  0.000  0.000 15.019 11.057  0.0000  0.0000  0.0000
 2001 255    10     6      0  0.0000  0.0000  0.0000  0.0000  0.0000 0.00000  0.000  0.000 16.923 11.345  0.0000  0.0000  0.0000
 2001 256    11     7      0  0.0000  0.0000  0.0000  0.0000  0.0000 0.00000  0.000  0.000 18.935 14.159  0.0000  0.0000  0.0000
 2001 257    12     8      0  0.0000  0.0000  0.0000  0.0000  0.0000 0.00000  0.000  0.000 14.228 11.240  0.0000  0.0000  0.0000
 2001 258    13     9      0  0.0000  0.0000  0.0000  0.0000  0.0000 0.00000  0.000  0.000 12.399  9.339  0.0000  0.0000  0.0000
 2001 259    14    10      0  0.0000  0.0000  0.0000  0.0000  0.0000 0.00000  0.000  0.000 10.797  8.333  0.0000  0.0000  0.0000
 2001 260    15    11      0  0.0000  0.0000  0.0000  0.0000  0.0000 0.00000  0.000  0.000 13.924  9.239  0.0000  0.0000  0.0000
 2001 261    16    12      8  0.0000  0.0003  0.0002  0.0001  0.0000 0.00000  3.969  7.936 19.722 13.975  0.0000  0.0000  0.0000
 2001 262    17    13      8  0.1129  0.0004  0.0716  0.0250  0.0062 0.00000  3.934  7.865 20.960 16.302  0.0000  0.0000  0.0000
 2001 263    18    14      9  0.1721  0.0005  0.1100  0.0368  0.0103 0.00000  3.894  7.796 23.184 18.346  0.0000  0.0000  0.0000
 2001 264    19    15     10  0.1215  0.0006  0.0767  0.0255  0.0093 0.00000  3.848  7.714 23.232 19.522  0.0000  0.0000  0.0000
 2001 265    20    16     11  0.1730  0.0006  0.1109  0.0363  0.0116 0.00000  3.810  7.656 23.620 19.024  0.0000  0.0000  0.0000
 2001 266    21    17     12  0.1580  0.0006  0.1015  0.0329  0.0109 0.00000  3.772  7.600 21.997 18.814  0.0000  0.0000  0.0000
 2001 267    22    18     13  0.1752  0.0008  0.1111  0.0353  0.0149 0.00000  3.726  7.533 24.786 21.354  0.0000  0.0000  0.0000
 2001 268    23    19     14  0.0777  0.0005  0.0486  0.0173  0.0057 0.00000  3.703  7.484 17.958 15.091  0.0000  0.0000  0.0000
 2001 269    24    20     14  0.0972  0.0004  0.0619  0.0214  0.0055 0.00000  3.687  7.454 16.328 13.814  0.0000  0.0000  0.0000
 2001 270    25    21     14  0.0603  0.0004  0.0372  0.0142  0.0040 0.00000  3.675  7.422 14.396 12.448  0.0000  0.0000  0.0000
 2001 271    26    22     15  0.1072  0.0007  0.0678  0.0219  0.0084 0.00000  3.645  7.374 19.789 17.166  0.0000  0.0000  0.0000
 2001 272    27    23     16  0.1887  0.0008  0.1221  0.0376  0.0131 0.00000  3.614  7.351 20.436 18.557  0.0000  0.0000  0.0000
 2001 273    28    24     17  0.1158  0.0008  0.0733  0.0233  0.0096 0.00000  3.584  7.303 18.629 17.600  0.0000  0.0000  0.0000
 2001 274    29    25     18  0.1209  0.0008  0.0886  0.0247  0.0100 0.00000  3.612  7.233 18.563 17.605  0.0000  0.0000  0.0000
 2001 275    30    26     18  0.1385  0.0007  0.1004  0.0293  0.0092 0.00000  3.641  7.183 17.188 15.839  0.0000  0.0000  0.0000
 2001 276    31    27     19  0.1657  0.0008  0.1190  0.0336  0.0109 0.00000  3.661  7.148 18.589 16.352  0.0000  0.0000  0.0000
 2001 277    32    28     21  0.3045  0.0009  0.2089  0.0609  0.0179 0.00000  3.680  7.166 20.081 17.594  0.0000  0.0000  0.0000
 2001 278    33    29     24  0.3854  0.0009  0.2096  0.0959  0.0192 0.00000  3.641  7.196 18.612 16.409  0.0000  0.0000  0.0000
 2001 279    34    30     26  0.4040  0.0010  0.2471  0.0893  0.0212 0.00000  3.626  7.231 19.137 16.755  0.0000  0.0000  0.0000
 2001 280    35    31     27  0.2286  0.0012  0.1507  0.0474  0.0161 0.00000  3.629  7.199 18.589 16.989  0.0000  0.0000  0.0000
 2001 281    36    32     29  0.3616  0.0012  0.2079  0.0871  0.0207 0.00000  3.619  7.191 18.513 16.734  0.0000  0.0000  0.0000
 2001 282    37    33     31  0.3499  0.0011  0.2110  0.0823  0.0182 0.00000  3.618  7.186 16.651 15.406  0.0000  0.0000  0.0000
 2001 283    38    34     36  0.7507  0.0014  0.4749  0.1600  0.0373 0.00000  3.626  7.274 21.521 16.788  0.0000  0.0000  0.0000
 2001 284    39    35     41  0.8251  0.0017  0.5248  0.1731  0.0415 0.00000  3.628  7.338 20.108 17.153  0.0000  0.0000  0.0000
 2001 285    40    36     45  0.5857  0.0018  0.3708  0.1227  0.0323 0.00000  3.618  7.345 19.359 16.510  0.0000  0.0000  0.0000
 2001 286    41    37     51  0.9167  0.0021  0.5878  0.1891  0.0481 0.00000  3.613  7.388 21.384 16.967  0.0000  0.0000  0.0000
 2001 287    42    38     57  1.0776  0.0028  0.6812  0.2273  0.0649 0.00000  3.608  7.407 22.552 18.740  0.0000  0.0000  0.0000
 2001 288    43    39     60  0.5189  0.0031  0.3139  0.1206  0.0409 0.00000  3.590  7.352 19.648 18.365  0.0000  0.0000  0.0000
 2001 289    44    40     65  0.8139  0.0035  0.5100  0.1757  0.0601 0.00000  3.576  7.328 21.683 19.544  0.0000  0.0000  0.0000
 2001 290    45    41     73  1.2996  0.0039  0.8443  0.2607  0.0856 0.00000  3.598  7.349 22.705 19.674  0.0000  0.0000  0.0000
 2001 291    46    42     82  1.4620  0.0050  0.8952  0.3051  0.1118 0.00000  3.574  7.352 25.509 21.301  0.0000  0.0000  0.0000
 2001 292    47    43     93  1.9427  0.0056  1.2158  0.3963  0.1395 0.00000  3.563  7.375 24.857 21.219  0.0000  0.0000  0.0000
 2001 293    48    44    106  2.0769  0.0065  1.2927  0.4297  0.1537 0.00000  3.557  7.379 25.701 21.205  0.0000  0.0000  0.0000
 2001 294    49    45    116  1.6136  0.0041  1.0213  0.3545  0.0734 0.00000  3.570  7.386 17.838 14.840  0.0000  0.0000  0.0000
 2001 295    50    46    127  1.7476  0.0039  1.1157  0.3793  0.0722 0.00000  3.583  7.403 17.514 13.730  0.0000  0.0000  0.0000
 2001 296    51    47    141  2.2228  0.0051  1.4313  0.4593  0.1048 0.00000  3.585  7.428 20.643 15.002  0.0000  0.0000  0.0000
 2001 297    52    48    160  3.0568  0.0083  1.9490  0.6205  0.1886 0.00000  3.578  7.442 24.462 18.605  0.0000  0.0000  0.0000
 2001 298    53    49    180  3.4217  0.0126  2.0360  0.7662  0.3094 0.00000  3.590  7.393 29.719 23.253  0.0000  0.0000  0.0000
 2001 299    54    50    188  1.8938  0.0126  1.2028  0.3996  0.1714 0.00000  3.607  7.321 22.054 20.732  0.0000  0.0000  0.0000
 2001 300    55    51    194  1.7839  0.0119  1.1483  0.3678  0.1528 0.00000  3.620  7.258 20.291 19.541  0.0000  0.0000  0.0000
 2001 301    56    52    205  2.2266  0.0134  1.3957  0.4646  0.1971 0.00397  3.647  7.249 22.667 20.880  0.0000  0.0000  0.0000
 2001 302    57    53    218  2.5698  0.0141  1.5864  0.5378  0.2195 0.01514  3.710  7.369 22.952 20.879  0.0000  0.0000  0.0000
 2001 303    58    54    249  5.1169  0.0116  3.1709  1.1289  0.2666 0.04714  3.879  7.839 20.378 17.625  0.0000  0.0000  0.0000
 2001 304    59    55    283  5.7923  0.0133  3.2116  1.3942  0.2912 0.06412  4.003  8.327 20.718 17.071  0.0000  0.0000  0.0000
 2001 305    60    56    323  6.7033  0.0160  3.9378  1.5258  0.3467 0.09881  4.186  8.921 22.030 17.166  0.0000  0.0000  0.0000
 2001 306    61    57    360  6.1385  0.0180  3.6203  1.4080  0.3084 0.10831  4.347  9.431 20.184 16.428  0.0000  0.0000  0.0000
 2001 307    62    58    404  7.2975  0.0208  4.3014  1.6784  0.3609 0.14931  4.537 10.016 20.729 16.329  0.0000  0.0000  0.0000
 2001 308    63    59    456  8.6183  0.0279  5.0342  1.9789  0.4709 0.20174  4.746 10.656 22.006 17.534  0.0000  0.0000  0.0000
 2001 309    64    60    517 10.4164  0.0424  5.9217  2.4449  0.7398 0.27607  4.976 11.350 26.353 20.485  0.0000  0.0000  0.0000
 2001 310    65    61    554  7.0257  0.0560  4.2028  1.4431  0.6314 0.22343  5.152 11.782 25.216 21.745  0.0000  0.0000  0.0000
 2001 311    66    62    573  3.9682  0.0396  2.4047  0.8349  0.2920 0.14186  5.245 12.022 17.402 16.399  0.0000  0.0000  0.0000
 2001 312    67    63    626  8.7345  0.0469  4.9379  1.9888  0.5198 0.31862  5.425 12.601 20.523 17.551  0.0000  0.0000  0.0000
 2001 313    68    64    694 10.6062  0.0569  6.9168  1.9480  0.6592 0.48917  5.749 13.423 22.431 18.206  0.0000  0.0000  0.0000
 2001 314    69    65    738  8.1815  0.0852  4.7582  1.6199  0.7421 0.37237  5.934 13.875 24.143 21.207  0.0000  0.0000  0.0000
 2001 315    70    66    835 16.1070  0.0819  9.2711  3.3421  1.0346 0.78808  6.305 14.859 23.999 19.416  0.0000  0.0000  0.0000
 2001 316    71    67    921 17.0211  0.1126  7.5127  4.2502  1.2818 0.68333  6.437 15.442 25.963 21.022  0.0000  0.0000  0.0000
 2001 317    72    68    965  9.1751  0.1177  4.0513  2.2964  0.7957 0.37091  6.467 15.635 22.810 19.766  0.0000  0.0000  0.0000
 2001 318    73    69   1050 15.9484  0.1329  8.3285  3.6545  1.2012 0.83369  6.749 16.315 23.253 20.567  0.0000  0.0000  0.0000
 2001 319    74    70   1156 19.2789  0.1383 10.0133  4.5640  1.2896 1.05690  7.062 17.092 23.426 19.379  0.0000  0.0000  0.0000
 2001 320    75    71   1231 14.1772  0.1134  7.2371  3.4915  0.7732 0.76272  7.254 17.569 18.819 15.774  0.0000  0.0000  0.0000
 2001 321    76    72   1329 17.8497  0.1320  9.1992  4.2921  1.0272 1.03963  7.502 18.179 22.213 16.302  0.0000  0.0000  0.0000
 2001 322    77    73   1455 22.1385  0.2099 12.3913  4.5932  1.7255 1.49006  7.870 18.960 26.580 20.310  0.0000  0.0000  0.0000
 2001 323    78    74   1570 20.2472  0.2733 11.2491  4.0661  1.9413 1.39093  8.120 19.520 27.861 22.308  0.0000  0.0000  0.0000
 2001 324    79    75   1709 23.5743  0.3223 13.5452  4.3627  2.5031 1.75616  8.421 20.180 30.191 23.920  0.0000  0.0000  0.0000
 2001 325    80    76   1792 15.9234  0.3721  8.3775  3.3052  1.8796 0.99786  8.498 20.365 25.811 23.231  0.0000  0.0000  0.0000
 2001 326    81    77   1922 22.1344  0.3954 12.8566  3.9729  2.4025 1.73803  8.755 20.905 27.927 23.556  0.0000  0.0000  0.0000
 2001 327    82    78   2063 24.6229  0.0864 13.4319  3.9276  3.1610 2.06303  9.177 21.840 31.275 25.971  0.0000  0.0000  0.0000
 2001 328    83    79   2098  8.9674  0.2892  3.4238  2.6734  0.9304 0.09937  9.036 21.625 19.217 16.637  0.0000  0.0000  0.0000
 2001 329    84    80   2155 11.8883  0.2330  4.7680  3.4265  0.8706 0.39809  8.948 21.562 18.046 14.749  0.0000  0.0000  0.0000
 2001 330    85    81   2188  9.8884  0.0000  5.0530  1.5954  1.1344 1.04693  9.333 22.350 19.715 18.174  0.0000  0.0000  0.0000
 2001 331    86    82   2347 26.0865  0.4269 15.2033  4.3969  2.1840 2.32924  9.644 23.002 23.551 20.253  0.0000  0.0000  0.0000
 2001 332    87    83   2484 23.8841  0.3883 12.9685  4.5995  1.7709 1.94351  9.855 23.457 22.041 17.919  0.0000  0.0000  0.0000
 2001 333    88    84   2621 21.6617  0.0000  9.4128  2.9424  1.6697 5.33504 11.087 26.644 21.511 17.568  0.0000  0.0000  0.0000
 2001 334    89    85   2651  7.7435  0.3654  3.7662  1.9058  0.8857 0.00000 10.992 26.442 16.605 15.028  0.0000  0.0000  0.0000
 2001 335    90    86   2795 24.6752  0.5377 14.0862  4.4087  1.9930 2.20299 11.189 26.739 22.608 18.378  0.0000  0.0000  0.0000
 2001 336    91    87   2939 25.7599  0.6274 14.6766  4.5211  2.2444 2.37377 11.377 27.026 23.616 19.135  0.0000  0.0000  0.0000
 2001 337    92    88   2984 11.6044  0.5924  6.0559  2.6697  1.3743 0.38901 11.302 26.837 19.785 17.348  6.2610 17.5025 34.8665
 2001 338    93    89   3029 12.3072  0.2219  6.9352  2.1629  1.5437 0.67159 11.424 26.990 21.185 18.209  6.2284 18.0426 34.5297
 2001 339    94    90   3101 17.5058  0.7599 10.0746  3.2730  1.9923 1.24666 11.478 26.984 21.795 19.644  6.1984 18.7865 33.9733
 2001 340    95    91   3235 23.4160  0.0000 11.6079  3.6009  2.4377 3.39055 12.097 28.392 23.626 20.221  6.1882 19.1881 33.6356
 2001 341    96    92   3364 25.8110  0.0000 11.4509  3.5316  2.9744 5.28737 13.069 30.701 26.465 21.554  6.1941 19.5042 33.2829
 2001 342    97    93   3443 17.3369  0.7294 10.3670  3.3798  1.4032 1.24030 13.111 30.655 17.910 15.258  6.2655 18.2845 34.0562
 2001 343    98    94   3527 17.0838  0.6606  9.6626  3.3878  1.2956 1.52164 13.178 30.681 19.348 13.578  6.3497 17.1598 34.6545
 2001 344    99    95   3652 23.3641  0.0000 12.0072  3.8420  2.1936 2.92651 13.613 31.562 22.784 17.910  6.3202 17.3684 34.6304
 2001 345   100    96   3751 21.2136  1.0636 12.3025  3.9930  2.1589 1.71520 13.638 31.482 23.065 17.869  6.3015 17.4959 34.6195
 2001 346   101    97   3855 21.9438  1.4328 12.2562  4.1514  3.2188 1.52725 13.596 31.249 27.360 22.415  6.2903 18.1021 34.0838
 2001 347   102    98   3924 21.6704  1.5888 11.6873  4.1327  3.5190 1.48709 13.534 30.975 26.914 23.725  6.3001 18.5296 33.5950
 2001 348   103    99   4004 23.6544  1.5699 13.2753  4.4476  3.4775 1.67498 13.488 30.747 25.774 23.015  6.2978 18.8767 33.2621
 2001 349   104   100   4104 25.7212  1.4546 14.2580  5.1000  3.1258 1.85835 13.471 30.594 24.495 20.984  6.2789 19.0652 33.1919
 2001 350   105   101   4165 23.8070  1.4146 12.5872  5.1991  2.8273 1.26130 13.414 30.362 24.117 19.853  6.2626 19.1205 33.2382
 2001 351   106   102   4258 27.0667  1.5063 14.9676  5.3292  3.3064 1.85738 13.386 30.204 26.252 20.734  6.2502 19.2361 33.2001
 2001 352   107   103   4371 26.9310  1.5611 14.2019  5.7169  3.3500 1.62804 13.317 29.981 25.925 20.873  6.2403 19.3418 33.1564
 2001 353   108   104   4438 20.6532  1.7518 10.8711  4.5498  3.6444 0.46982 13.159 29.516 28.125 23.073  6.2475 19.5011 32.9520
 2001 354   109   105   4443 19.3334  1.8783 10.1027  4.1602  4.0920 0.29693 12.970 28.978 29.365 24.958  6.2735 19.6268 32.6636
 2001 355   110   106   4431  9.8659  1.3893  6.0768  2.2949  1.9108 0.00000 12.824 28.538 19.775 18.091  6.2666 19.4369 32.8970
 2001 356   111   107   4502 24.6242  1.5370 12.7533  5.8844  3.0534 0.56307 12.696 28.154 23.210 20.272  6.2553 19.4626 32.9420
 2001 357   112   108   4606 24.8852  1.4349 13.3065  5.3536  2.8623 1.06321 12.620 27.910 24.620 18.744  6.2488 19.3787 33.0662
 2001 358   113   109   4690 25.6982  1.5792 13.1269  6.0022  3.2871 0.87104 12.512 27.584 25.265 20.320  6.2413 19.4089 33.0829
 2001 359   114   110   4767 26.2295  1.6547 13.2970  6.0653  3.5938 0.85597 12.391 27.235 26.358 21.127  6.2364 19.4704 33.0521
 2001 360   115   111   4852 26.0041  1.7441 13.8076  5.6250  4.0823 0.83856 12.258 26.856 28.284 22.587  6.2385 19.5619 32.9473
 2001 361   116   112   4864 25.4188  1.8750 12.6366  5.6811  4.7163 0.58990 12.087 26.380 29.723 24.671  6.2563 19.6495 32.7487
 2001 362   117   113   4903 24.5986  1.8199 12.2087  5.7107  4.4566 0.35854 11.902 25.863 29.109 24.021  6.2678 19.7347 32.5915
 2001 363   118   114   4937 23.6362  1.8424 11.8332  5.5739  4.4803 0.09366 11.689 25.266 28.481 24.396  6.2815 19.8113 32.4294
 2001 364   119   115   4987 23.1312  1.8360 11.4857  5.4438  4.7542 0.00000 11.464 24.637 29.720 25.205  6.3001 19.8771 32.2474
 2001 365   120   116   5005 19.3568  1.8077  9.7168  4.4649  4.5104 0.00000 11.239 24.008 29.645 25.202  6.3160 19.9335 32.0915
 2002 001   121   117   5074 24.4599  1.6585 12.0596  6.0850  4.0533 0.00000 11.031 23.421 26.851 22.694  6.3114 19.9789 32.0751
 2002 002   122   118   5133 22.9393  1.6569 11.6090  5.5612  4.0707 0.00000 10.820 22.828 26.783 22.984  6.3091 20.0208 32.0473
 2002 003   123   119   5170 24.1203  1.5828 12.1154  5.9399  3.9097 0.03367 10.620 22.266 25.968 22.133  6.3028 20.0458 32.0615
 2002 004   124   120   5196 21.9562  1.5461 11.2216  5.4141  3.8034 0.00000 10.418 21.697 26.380 22.042  6.2967 20.0669 32.0787
 2002 005   125   121   5153 10.2790  1.4225  5.9222  2.5308  2.6809 0.00000 10.229 21.163 21.498 20.422  6.2868 20.0371 32.1705
 2002 006   126   122   5168 17.7005  1.4220  8.8209  4.5714  3.3058 0.00000 10.033 20.611 23.874 21.401  6.2794 20.0440 32.2096
 2002 007   127   123   5212 20.8441  1.2565 10.8351  5.2961  2.8318 0.00000  9.860 20.115 22.443 18.822  6.2726 19.9414 32.3548
 2002 008   128   124   5291 22.9914  1.3017 11.5140  5.7191  3.4897 0.00000  9.674 19.590 26.339 20.317  6.2656 19.9208 32.4189
 2002 009   129   125   5339 21.2813  1.3438 10.7263  5.4868  3.6622 0.00000  9.476 19.043 25.650 21.528  6.2612 19.9385 32.4290
 2002 010   130   126   5366 21.5121  1.3492 10.5446  5.4830  4.0246 0.00000  9.272 18.484 27.292 22.489  6.2606 19.9709 32.4006
 2002 011   131   127   5392 20.1728  1.3757  9.6072  5.0624  4.5430 0.00000  9.057 17.900 28.765 24.428  6.2709 20.0082 32.2985
 2002 012   132   128   5432 21.5601  1.3487  9.9297  5.3541  5.0646 0.00000  8.838 17.313 30.446 25.535  6.2866 20.0411 32.1678
 2002 013   133   129   5445 20.4071  1.3285  9.3137  5.0233  5.2462 0.00000  8.617 16.723 30.865 26.277  6.3048 20.0706 32.0242
 2002 014   134   130   5456 11.8917  1.0074  6.3876  3.1106  2.6558 0.01721  8.455 16.275 22.505 19.351  6.3037 20.0109 32.0910
 2002 015   135   131   5513 17.0928  0.9552  8.7481  5.0214  2.4375 0.00000  8.293 15.831 21.627 17.218  6.3033 19.8494 32.2549
 2002 016   136   132   5553 17.6770  0.9512  8.9836  5.0570  2.6023 0.00000  8.127 15.381 22.269 17.718  6.2993 19.7347 32.3949
 2002 017   137   133   5594 17.5983  0.8068  8.6959  5.0034  2.9335 0.04894  8.004 15.024 23.770 18.968  6.3051 19.6582 32.4350
 2002 018   138   134   5640 18.4373  0.7244  8.9558  5.2774  2.9806 0.06832  7.902 14.713 23.299 19.106  6.3144 19.5849 32.4498
 2002 019   139   135   5686 19.2512  0.7494  8.9811  5.2798  3.6161 0.07238  7.792 14.385 26.602 21.120  6.3240 19.5747 32.4001
 2002 020   140   136   5721 17.2625  0.8737  7.4363  4.1904  5.0201 0.05526  7.641 13.973 32.151 26.023  6.3453 19.5896 32.2523
 2002 021   141   137   5747 14.3877  0.9047  6.5851  3.4434  4.1473 0.03717  7.469 13.524 27.761 24.536  6.3555 19.6067 32.1713
 2002 022   142   138   5785 17.1458  0.8056  7.3473  4.2395  4.7857 0.06009  7.321 13.133 30.506 25.849  6.3742 19.6168 32.0441
 2002 023   143   139   5822 15.9419  0.8238  6.9352  3.9271  4.5163 0.03894  7.153 12.709 30.829 25.204  6.3853 19.6327 31.9595
 2002 024   144   140   5832 10.6682  0.8783  4.9066  2.2474  3.8186 0.01540  6.956 12.231 28.042 24.531  6.3889 19.6479 31.9216
 2002 025   145   141   5874 15.3428  0.8851  7.1017  3.0354  4.0488 0.00000  6.742 11.728 27.911 24.328  6.3282 19.8027 32.1460
 2002 026   146   142   5708  9.5489  0.8004  4.6159  1.9110  3.0968 0.00000  6.457 10.787 24.825 22.318  6.3263 19.8149 32.1455
 2002 027   147   143   5580  9.4645  0.6915  4.3363  1.8542  3.1972 0.00000  6.174  9.947 25.651 23.215  6.3234 19.8334 32.1454
 2002 028   148   144   5485 10.0313  0.5889  4.3255  2.0877  3.3901 0.00000  5.900  9.207 29.128 23.828  6.3240 19.8464 32.1286
 2002 029   149   145   5404  7.8448  0.5127  3.1504  1.3597  3.4090 0.00000  5.633  8.550 30.742 24.726  6.3255 19.8555 32.1099
 2002 030   150   146   5330  5.8931  0.4523  2.2912  0.8848  3.0793 0.00000  5.373  7.964 29.085 24.466  6.3264 19.8620 32.0980
 2002 031   151   147   5270  3.9448  0.3944  1.3682  0.3925  2.6261 0.00000  5.121  7.445 26.487 23.408  6.3263 19.8658 32.0945
 2002 032   152   148   5223  3.6522  0.3293  1.4860  0.4263  2.1249 0.00000  4.899  7.001 24.155 21.005  6.3255 19.8665 32.0994
 2002 033   153   149   5184  2.5306  0.2756  0.9296  0.2667  1.6717 0.00000  4.695  6.623 22.927 18.452  6.3250 19.8608 32.1081
 2002 034   154   150   5150  1.9085  0.2482  0.4929  0.1414  1.5595 0.00000  4.497  6.284 22.565 17.948  6.3248 19.8570 32.1132
 2002 035   155   151   5119  1.6692  0.2463  0.0171  0.0049  1.8942 0.00000  4.286  5.958 25.174 20.343  6.3248 19.8570 32.1133
 2002 036   156   152   5092  1.0587  0.2369  0.0000  0.0000  2.0327 0.00000  4.077  5.650 26.026 21.589  6.3248 19.8570 32.1133
 2002 037   157   153   5070  0.8478  0.2197  0.0000  0.0000  1.9574 0.00000  3.879  5.367 24.837 21.438  6.3248 19.8570 32.1133

*DSSAT Cropping System Model Ver. 4.6.1.000 -release      OCT 19, 2016; 10:03:17
                                                                                
*RUN   3        : UYSB                      CRGRO046 UYSB0906    1              
 MODEL          : CRGRO046 - Soybean                                            
 EXPERIMENT     : UYSB0906 SN late to create DSS                                
 DATA PATH      :                                                               
 TREATMENT  1   : UYSB                      CRGRO046                            
  
@YEAR DOY   DAS   DAP   TWAD    PHAD    CMAD    CGRD    GRAD    MRAD    CHAD   CL%D   CS%D   TGNN   TGAV    GN%D    GL%D    GC%D
 2002 249     4     0      0  0.0000  0.0000  0.0000  0.0000  0.0000 0.00000  0.000  0.000 14.911 11.420  0.0000  0.0000  0.0000
 2002 250     5     1      0  0.0000  0.0000  0.0000  0.0000  0.0000 0.00000  0.000  0.000 13.511  9.808  0.0000  0.0000  0.0000
 2002 251     6     2      0  0.0000  0.0000  0.0000  0.0000  0.0000 0.00000  0.000  0.000 13.988  9.827  0.0000  0.0000  0.0000
 2002 252     7     3      0  0.0000  0.0000  0.0000  0.0000  0.0000 0.00000  0.000  0.000 16.879 12.679  0.0000  0.0000  0.0000
 2002 253     8     4      0  0.0000  0.0000  0.0000  0.0000  0.0000 0.00000  0.000  0.000 16.668 13.621  0.0000  0.0000  0.0000
 2002 254     9     5      0  0.0000  0.0000  0.0000  0.0000  0.0000 0.00000  0.000  0.000 16.819 16.259  0.0000  0.0000  0.0000
 2002 255    10     6      0  0.0000  0.0000  0.0000  0.0000  0.0000 0.00000  0.000  0.000 16.090 13.459  0.0000  0.0000  0.0000
 2002 256    11     7      0  0.0000  0.0000  0.0000  0.0000  0.0000 0.00000  0.000  0.000 16.235 12.267  0.0000  0.0000  0.0000
 2002 257    12     8      0  0.0000  0.0000  0.0000  0.0000  0.0000 0.00000  0.000  0.000 16.512 12.681  0.0000  0.0000  0.0000
 2002 258    13     9      0  0.0000  0.0000  0.0000  0.0000  0.0000 0.00000  0.000  0.000 15.703 12.854  0.0000  0.0000  0.0000
 2002 259    14    10      0  0.0000  0.0000  0.0000  0.0000  0.0000 0.00000  0.000  0.000 16.660 13.914  0.0000  0.0000  0.0000
 2002 260    15    11      8  0.0000  0.0004  0.0002  0.0001  0.0000 0.00000  3.956  7.908 18.481 17.002  0.0000  0.0000  0.0000
 2002 261    16    12      8  0.0526  0.0004  0.0318  0.0126  0.0039 0.00000  3.919  7.830 18.197 16.328  0.0000  0.0000  0.0000
 2002 262    17    13      8  0.0613  0.0003  0.0384  0.0142  0.0034 0.00000  3.896  7.782 18.044 13.563  0.0000  0.0000  0.0000
 2002 263    18    14      9  0.0742  0.0001  0.0474  0.0172  0.0025 0.00000  3.887  7.765 13.925 10.217  0.0000  0.0000  0.0000
 2002 264    19    15      9  0.0895  0.0002  0.0573  0.0202  0.0033 0.00000  3.875  7.743 15.646 11.335  0.0000  0.0000  0.0000
 2002 265    20    16     10  0.1238  0.0003  0.0802  0.0262  0.0055 0.00000  3.855  7.715 19.151 13.565  0.0000  0.0000  0.0000
 2002 266    21    17     11  0.1263  0.0003  0.0813  0.0273  0.0054 0.00000  3.838  7.688 17.263 13.372  0.0000  0.0000  0.0000
 2002 267    22    18     12  0.1389  0.0003  0.0905  0.0292  0.0059 0.00000  3.822  7.670 18.488 12.933  0.0000  0.0000  0.0000
 2002 268    23    19     13  0.2093  0.0006  0.1358  0.0426  0.0116 0.00000  3.794  7.639 22.466 16.837  0.0000  0.0000  0.0000
 2002 269    24    20     14  0.2103  0.0006  0.1371  0.0427  0.0114 0.00000  3.769  7.614 22.162 16.071  0.0000  0.0000  0.0000
 2002 270    25    21     16  0.2530  0.0007  0.1643  0.0509  0.0156 0.00000  3.740  7.583 23.704 17.894  0.0000  0.0000  0.0000
 2002 271    26    22     17  0.2633  0.0011  0.1674  0.0514  0.0225 0.00000  3.696  7.524 26.977 21.732  0.0000  0.0000  0.0000
 2002 272    27    23     18  0.0923  0.0008  0.0576  0.0197  0.0081 0.00000  3.666  7.463 17.090 16.417  0.0000  0.0000  0.0000
 2002 273    28    24     19  0.1992  0.0008  0.1296  0.0403  0.0123 0.00000  3.642  7.434 19.231 16.677  0.0000  0.0000  0.0000
 2002 274    29    25     21  0.2264  0.0008  0.1483  0.0453  0.0128 0.00000  3.622  7.419 19.772 15.762  0.0000  0.0000  0.0000
 2002 275    30    26     22  0.2617  0.0011  0.1609  0.0594  0.0185 0.00000  3.615  7.370 22.682 18.459  0.0000  0.0000  0.0000
 2002 276    31    27     24  0.3777  0.0012  0.2333  0.0852  0.0244 0.00000  3.619  7.340 21.732 18.927  0.0000  0.0000  0.0000
 2002 277    32    28     26  0.3566  0.0013  0.2209  0.0773  0.0253 0.00000  3.609  7.310 23.757 18.998  0.0000  0.0000  0.0000
 2002 278    33    29     29  0.4248  0.0017  0.2650  0.0873  0.0333 0.00000  3.589  7.288 22.872 21.024  0.0000  0.0000  0.0000
 2002 279    34    30     32  0.4663  0.0021  0.3045  0.0886  0.0436 0.00000  3.603  7.255 26.939 22.993  0.0000  0.0000  0.0000
 2002 280    35    31     33  0.2574  0.0014  0.1467  0.0618  0.0186 0.00000  3.586  7.215 19.793 16.629  0.0000  0.0000  0.0000
 2002 281    36    32     35  0.2772  0.0016  0.1706  0.0618  0.0221 0.00000  3.581  7.168 20.087 18.024  0.0000  0.0000  0.0000
 2002 282    37    33     36  0.3047  0.0018  0.2047  0.0599  0.0247 0.00000  3.598  7.128 18.927 18.536  0.0000  0.0000  0.0000
 2002 283    38    34     38  0.3402  0.0019  0.2267  0.0663  0.0267 0.00000  3.609  7.102 19.203 18.527  0.0000  0.0000  0.0000
 2002 284    39    35     41  0.5408  0.0023  0.3090  0.1167  0.0426 0.00000  3.571  7.113 22.581 20.481  0.0000  0.0000  0.0000
 2002 285    40    36     48  1.0760  0.0030  0.6603  0.2148  0.0893 0.00000  3.559  7.196 27.278 23.326  0.0000  0.0000  0.0000
 2002 286    41    37     56  1.3414  0.0038  0.8064  0.2765  0.1218 0.00000  3.569  7.235 28.508 24.839  0.0000  0.0000  0.0000
 2002 287    42    38     65  1.5580  0.0045  0.9421  0.3120  0.1485 0.00000  3.566  7.273 29.406 25.487  0.0000  0.0000  0.0000
 2002 288    43    39     70  0.8865  0.0055  0.5703  0.1630  0.1075 0.00000  3.576  7.213 28.896 25.867  0.0000  0.0000  0.0000
 2002 289    44    40     75  0.8656  0.0031  0.4976  0.2002  0.0514 0.00000  3.555  7.218 19.577 16.725  0.0000  0.0000  0.0000
 2002 290    45    41     85  1.6166  0.0030  1.0137  0.3575  0.0734 0.00000  3.576  7.283 19.903 15.695  0.0000  0.0000  0.0000
 2002 291    46    42     98  2.2217  0.0048  1.4036  0.4613  0.1308 0.00000  3.582  7.349 23.681 18.938  0.0000  0.0000  0.0000
 2002 292    47    43    106  1.2292  0.0069  0.8003  0.2325  0.1110 0.00000  3.590  7.306 23.483 21.557  0.0000  0.0000  0.0000
 2002 293    48    44    113  1.3191  0.0064  0.7708  0.2841  0.1039 0.00000  3.558  7.280 23.822 19.611  0.0000  0.0000  0.0000
 2002 294    49    45    118  0.8523  0.0016  0.5279  0.1968  0.0294 0.00000  3.570  7.293 12.099  9.957  0.0000  0.0000  0.0000
 2002 295    50    46    128  1.6185  0.0030  1.0414  0.3433  0.0586 0.00000  3.579  7.335 16.820 11.858  0.0000  0.0000  0.0000
 2002 296    51    47    143  2.2906  0.0050  1.4772  0.4658  0.1066 0.00000  3.580  7.377 20.614 14.901  0.0000  0.0000  0.0000
 2002 297    52    48    163  3.3542  0.0104  2.0326  0.7415  0.2446 0.00000  3.599  7.356 24.788 21.395  0.0000  0.0000  0.0000
 2002 298    53    49    176  2.2657  0.0100  1.3789  0.5082  0.1605 0.00000  3.594  7.317 21.593 19.164  0.0000  0.0000  0.0000
 2002 299    54    50    203  4.4297  0.0000  2.5028  0.7103  0.3400 0.49742  7.827 11.001 26.091 22.196  0.0000  0.0000  0.0000
 2002 300    55    51    214  2.4571  0.0237  0.9297  0.7111  0.2293 0.00669  7.372 10.732 23.846 21.774  0.0000  0.0000  0.0000
 2002 301    56    52    244  4.7480  0.0000  2.8252  0.7957  0.3779 0.34673  8.116 13.755 25.565 22.313  0.0000  0.0000  0.0000
 2002 302    57    53    256  2.6779  0.0174  1.0026  0.8058  0.1379 0.01886  7.755 13.506 17.235 14.876  0.0000  0.0000  0.0000
 2002 303    58    54    268  2.2871  0.0179  1.0919  0.6016  0.1328 0.02507  7.541 13.339 18.443 14.867  0.0000  0.0000  0.0000
 2002 304    59    55    304  6.2194  0.0249  3.6140  1.4193  0.3293 0.10264  7.289 13.261 21.502 17.569  0.0000  0.0000  0.0000
 2002 305    60    56    344  6.7432  0.0286  3.9741  1.5031  0.3681 0.13494  7.119 13.319 21.636 17.773  0.0000  0.0000  0.0000
 2002 306    61    57    391  7.9528  0.0399  4.6028  1.7675  0.5285 0.18731  7.006 13.499 23.827 20.179  0.0000  0.0000  0.0000
 2002 307    62    58    404  2.8311  0.0297  1.7602  0.5906  0.1901 0.07957  6.995 13.555 16.867 15.544  0.0000  0.0000  0.0000
 2002 308    63    59    425  3.8295  0.0225  2.0800  0.9342  0.1754 0.10137  6.957 13.669 15.211 13.243  0.0000  0.0000  0.0000
 2002 309    64    60    463  6.2183  0.0241  3.5944  1.4334  0.2507 0.18785  6.959 13.946 17.512 13.289  0.0000  0.0000  0.0000
 2002 310    65    61    511  7.9522  0.0350  4.5599  1.8048  0.3743 0.25858  6.989 14.297 19.788 15.243  0.0000  0.0000  0.0000
 2002 311    66    62    574 10.8682  0.0580  6.1132  2.4251  0.6890 0.38519  7.064 14.767 24.037 19.097  0.0000  0.0000  0.0000
 2002 312    67    63    643 12.1368  0.0804  6.6695  2.6844  0.9339 0.46812  7.160 15.257 26.285 21.452  0.0000  0.0000  0.0000
 2002 313    68    64    673  6.0398  0.0737  3.2618  1.3727  0.4723 0.25226  7.185 15.437 19.992 18.452  0.0000  0.0000  0.0000
 2002 314    69    65    712  6.9224  0.0496  3.7718  1.6270  0.3445 0.30719  7.263 15.738 16.726 14.256  0.0000  0.0000  0.0000
 2002 315    70    66    741  5.6455  0.0780  2.9357  1.2969  0.4550 0.25584  7.299 15.906 21.323 17.563  0.0000  0.0000  0.0000
 2002 316    71    67    828 15.1741  0.0908  8.2914  3.3465  0.9675 0.76965  7.524 16.636 24.944 18.677  0.0000  0.0000  0.0000
 2002 317    72    68    917 16.2233  0.1299  8.5607  3.5802  1.3305 0.84624  7.718 17.270 27.936 21.633  0.0000  0.0000  0.0000
 2002 318    73    69    996 14.9856  0.1717  7.6446  3.4091  1.4783 0.79857  7.864 17.736 28.227 23.678  0.0000  0.0000  0.0000
 2002 319    74    70   1062 12.8827  0.1789  6.4592  3.0061  1.2092 0.70397  7.977 18.086 24.148 22.214  0.0000  0.0000  0.0000
 2002 320    75    71   1161 18.9628  0.2146  9.5271  4.2972  1.8879 1.11045  8.187 18.686 28.677 24.235  0.0000  0.0000  0.0000
 2002 321    76    72   1207 10.4287  0.2462  4.8267  2.4784  1.3257 0.50070  8.213 18.767 26.588 23.973  0.0000  0.0000  0.0000
 2002 322    77    73   1317 20.2431  0.2553 10.9900  4.1389  1.9901 1.38890  8.535 19.507 27.300 23.932  0.0000  0.0000  0.0000
 2002 323    78    74   1416 16.6906  0.0000  8.6588  2.4761  1.5383 2.53384  9.517 22.056 25.989 21.546  0.0000  0.0000  0.0000
 2002 324    79    75   1466 10.5287  0.3043  6.1054  1.9284  1.2244 0.66653  9.587 22.127 23.629 21.623  0.0000  0.0000  0.0000
 2002 325    80    76   1569 18.2774  0.2732  9.8591  3.7257  1.4224 1.27527  9.740 22.494 22.791 19.638  0.0000  0.0000  0.0000
 2002 326    81    77   1667 20.4641  0.2613  8.2212  5.3409  1.4025 1.00960  9.702 22.636 22.804 18.110  0.0000  0.0000  0.0000
 2002 327    82    78   1789 22.7964  0.3894 11.5073  4.9002  2.3456 1.62006  9.865 23.030 28.824 23.127  0.0000  0.0000  0.0000
 2002 328    83    79   1888 18.5299  0.0000  7.6762  2.1405  2.4713 4.59970 11.418 26.835 28.058 25.585  0.0000  0.0000  0.0000
 2002 329    84    80   1941 11.6799  0.0000  5.9644  1.8453  1.5319 1.13416 11.786 27.601 23.837 21.830  0.0000  0.0000  0.0000
 2002 330    85    81   2060 21.3050  0.5774 11.9977  3.7176  2.3907 1.66841 11.895 27.687 26.967 23.455  0.0000  0.0000  0.0000
 2002 331    86    82   2127 15.3583  0.6273  6.5512  3.5545  2.1797 0.41279 11.664 27.302 27.847 24.012  0.0000  0.0000  0.0000
 2002 332    87    83   2168  9.2268  0.3967  4.7508  2.1372  0.9749 0.00000 11.539 27.036 18.431 16.925  0.0000  0.0000  0.0000
 2002 333    88    84   2212 10.8474  0.5367  5.4879  2.6430  1.4308 0.04703 11.383 26.694 22.693 20.292  0.0000  0.0000  0.0000
 2002 334    89    85   2333 21.2220  0.0000  5.9248  1.9669  2.6552 8.46291 13.880 32.955 27.443 24.110  6.3731 20.4739 31.1943
 2002 335    90    86   2349  8.2777  0.6342  5.0350  1.6766  1.1558 0.00000 13.823 32.664 19.568 18.421  6.2514 18.9869 33.4418
 2002 336    91    87   2481 22.1759  0.0000 10.4461  3.1845  1.9087 3.97532 14.796 34.809 22.793 19.316  6.2117 19.0418 33.6352
 2002 337    92    88   2595 20.1248  0.0000  5.8513  1.9360  2.1456 7.94395 16.877 39.681 25.026 20.832  6.2020 19.3569 33.3805
 2002 338    93    89   2598  9.7403  0.0000  4.8882  1.5187  1.4312 0.97400 17.251 40.328 20.570 19.423  6.1948 19.2880 33.4943
 2002 339    94    90   2660 17.4890  0.0000  4.7600  1.4857  2.5819 6.98818 18.981 44.137 26.740 23.908  6.2539 19.7179 32.6952
 2002 340    95    91   2680 10.7410  1.0110  6.3032  2.0698  2.0042 0.12241 18.946 43.862 24.996 22.845  6.2612 19.9686 32.3988
 2002 341    96    92   2752 15.0869  0.0000  7.7390  2.7807  1.8122 0.67187 19.247 44.301 23.328 19.922  6.2366 19.8179 32.7033
 2002 342    97    93   2822 17.5170  1.0637  9.7263  3.5451  1.5386 0.79797 19.148 43.854 21.115 17.136  6.2446 19.2920 33.1792
 2002 343    98    94   2916 21.8773  1.3314 12.4604  4.1038  2.2822 1.38202 19.013 43.275 23.757 20.424  6.2307 19.3816 33.1765
 2002 344    99    95   2938 13.0956  1.3050  7.4732  3.1324  1.7392 0.00000 18.849 42.791 21.992 19.555  6.2204 19.3522 33.2705
 2002 345   100    96   3032 22.7847  0.0000  9.4474  3.7678  2.9561 3.81912 19.813 44.760 26.399 23.174  6.2359 19.5753 32.9501
 2002 346   101    97   3124 20.3242  0.0000  9.3459  3.8930  2.4893 2.10580 20.414 45.864 24.613 21.424  6.2296 19.6773 32.8878
 2002 347   102    98   3184 17.0091  1.4483  9.7110  4.0704  2.2804 0.05607 20.258 45.393 23.934 21.067  6.2233 19.7294 32.8753
 2002 348   103    99   3261 18.9133  1.2923 10.2286  4.2314  3.0554 0.29586 20.173 45.036 27.728 24.037  6.2449 19.8407 32.6288
 2002 349   104   100   3290 18.3956  1.9190 10.1915  4.3065  3.2304 0.13628 19.901 44.321 28.295 24.784  6.2692 19.9236 32.3936
 2002 350   105   101   3357 21.7602  0.0218 10.7524  4.5591  3.1956 0.65462 20.196 44.688 26.756 23.674  6.2787 19.9998 32.2583
 2002 351   106   102   3398 20.3490  0.9423 10.8823  4.7473  2.7240 0.24746 20.196 44.509 25.150 21.782  6.2705 20.0304 32.2788
 2002 352   107   103   3470 22.1388  0.3073 11.3581  5.0605  2.7109 0.42527 20.383 44.684 25.998 20.875  6.2599 20.0164 32.3590
 2002 353   108   104   3476  8.3816  1.5272  5.0940  2.3648  1.5807 0.00000 20.171 44.116 20.469 18.498  6.2530 19.8292 32.5897
 2002 354   109   105   3524 18.5906  1.6757  9.4979  4.9920  2.4477 0.00000 19.941 43.481 23.830 20.677  6.2448 19.8296 32.6401
 2002 355   110   106   3576 21.3536  1.6601 11.1900  5.4773  2.6618 0.00668 19.706 42.835 25.359 20.665  6.2383 19.8294 32.6812
 2002 356   111   107   3574 10.1945  1.8609  5.6755  2.6141  2.6706 0.00000 19.422 42.086 27.531 23.840  6.2506 19.9000 32.5334
 2002 357   112   108   3564  7.7966  1.2230  4.8566  2.2990  1.1375 0.00000 19.263 41.597 17.409 15.009  6.2697 19.4740 32.8402
 2002 358   113   109   3602 16.1162  1.3753  8.6292  4.3298  1.8165 0.00000 19.077 41.029 21.657 17.501  6.2681 19.3091 33.0155
 2002 359   114   110   3657 20.8755  1.5144 10.9119  5.3839  2.5269 0.00000 18.855 40.384 25.205 19.830  6.2599 19.3171 33.0582
 2002 360   115   111   3728 20.7306  1.6744 10.5505  5.3993  3.2461 0.00000 18.588 39.644 28.171 22.975  6.2621 19.4193 32.9424
 2002 361   116   112   3753 20.4136  1.7575 10.0230  5.1144  4.0684 0.00000 18.294 38.846 31.817 25.941  6.2838 19.5031 32.7234
 2002 362   117   113   3710  9.3216  1.7060  5.1716  2.4760  2.7815 0.00395 18.000 38.049 26.428 24.349  6.2956 19.5799 32.5723
 2002 363   118   114   3705  9.2185  1.6705  5.1201  2.3890  2.8577 0.00159 17.710 37.236 27.574 24.815  6.3075 19.6471 32.4313
 2002 364   119   115   3715 13.2006  1.5596  6.8298  3.6135  2.8612 0.00000 17.442 36.454 26.933 23.529  6.3093 19.7158 32.3512
 2002 365   120   116   3721 10.2572  1.3738  5.7094  2.8470  2.2680 0.01133 17.214 35.755 23.833 21.503  6.3071 19.7360 32.3446
 2003 001   121   117   3744 14.7830  1.4140  7.5418  4.1460  2.6883 0.00000 16.965 35.001 25.072 22.312  6.3024 19.7834 32.3265
 2003 002   122   118   3775 16.2267  1.3537  8.1462  4.5742  2.6936 0.00000 16.717 34.254 24.951 21.868  6.2940 19.8232 32.3391
 2003 003   123   119   3780  9.1997  1.2681  5.1258  2.4735  2.2211 0.00821 16.480 33.538 24.083 21.359  6.2922 19.8314 32.3422
 2003 004   124   120   3813 18.1364  1.3672  8.7786  4.9496  3.3689 0.00000 16.200 32.728 28.100 24.085  6.2895 19.8946 32.2960
 2003 005   125   121   3844 17.3974  1.3006  8.1618  4.8568  3.3664 0.00000 15.917 31.928 29.302 23.961  6.2943 19.9345 32.2263
 2003 006   126   122   3887 17.6695  1.1569  8.6700  4.9834  2.8594 0.01515 15.670 31.209 25.764 21.928  6.2802 19.9764 32.2725
 2003 007   127   123   3930 17.4706  1.0190  8.2713  4.9430  2.9817 0.04878 15.469 30.590 27.684 22.307  6.2743 20.0080 32.2778
 2003 008   128   124   3970 16.8451  0.9735  7.7834  4.8985  3.0421 0.05706 15.275 29.992 28.474 22.810  6.2898 20.0007 32.1882
 2003 009   129   125   4004 15.3095  1.0406  6.9500  4.2761  3.3261 0.05237 15.046 29.321 28.626 24.969  6.3113 19.9968 32.0573
 2003 010   130   126   4016  9.2037  1.1599  4.6074  2.3140  2.7159 0.00265 14.732 28.488 26.855 24.346  6.3148 20.0110 32.0218
 2003 011   131   127   4057 14.1915  0.9807  6.5339  3.9300  2.9731 0.03768 14.483 27.801 28.324 23.880  6.3257 20.0128 31.9515
 2003 012   132   128   4107 15.8697  0.8884  7.2174  4.5058  2.9089 0.05012 14.260 27.178 28.032 23.086  6.3358 20.0096 31.8918
 2003 013   133   129   4158 15.4121  0.8065  7.0751  4.5345  2.5765 0.05386 14.055 26.609 27.304 21.497  6.3422 19.9909 31.8704
 2003 014   134   130   4204 15.0480  0.8371  6.6586  4.3236  2.9988 0.05488 13.828 26.001 29.163 23.787  6.3542 19.9861 31.8004
 2003 015   135   131   4244 13.9767  0.8622  6.0440  3.9194  3.2081 0.05098 13.578 25.352 29.931 25.272  6.3689 19.9815 31.7130
 2003 016   136   132   4282 13.7524  0.8511  5.8281  3.8172  3.3358 0.05225 13.319 24.697 30.219 26.062  6.3849 19.9761 31.6179
 2003 017   137   133   4317 13.3072  0.8315  5.4874  3.6223  3.4984 0.05110 13.053 24.041 31.815 26.870  6.4016 19.9706 31.5195
 2003 018   138   134   4358 13.2077  0.7313  5.8570  3.8423  2.4985 0.05196 12.816 23.459 26.250 22.451  6.4069 19.9629 31.4941
 2003 019   139   135   4393 12.2218  0.7310  5.2549  3.4409  2.7145 0.04688 12.563 22.857 29.569 23.478  6.4133 19.9589 31.4578
 2003 020   140   136   4421 10.5264  0.8146  4.6731  2.8546  2.5459 0.02251 12.247 22.137 26.687 23.785  6.4159 19.9627 31.4376
 2003 021   141   137   4459 12.1083  0.8422  5.4996  2.7133  2.6814 0.00000 11.889 21.345 28.279 23.800  6.3688 20.0702 31.6245
 2003 022   142   138   4377  8.3809  0.8303  3.6121  1.9670  2.6810 0.00000 11.374 20.020 29.051 25.289  6.3539 20.1121 31.6763
 2003 023   143   139   4327  9.1877  0.6596  4.2593  2.1165  2.0936 0.00000 10.910 18.875 25.355 22.131  6.3144 20.1929 31.8423
 2003 024   144   140   4287  7.4016  0.5337  3.4139  1.8556  1.6758 0.00000 10.488 17.883 25.627 19.752  6.2933 20.2193 31.9474
 2003 025   145   141   4246  5.5431  0.5126  2.3097  1.3017  1.9787 0.00000 10.041 16.919 27.852 23.088  6.2933 20.2219 31.9448
 2003 026   146   142   4211  4.4999  0.4468  1.8217  0.9923  1.8210 0.00000  9.615 16.049 27.983 22.538  6.2930 20.2234 31.9452
 2003 027   147   143   4181  3.3306  0.3960  1.2791  0.6138  1.6808 0.00000  9.207 15.256 27.938 22.136  6.2927 20.2240 31.9468
 2003 028   148   144   4153  2.6615  0.3710  0.8560  0.3181  1.8323 0.00000  8.798 14.503 29.560 23.830  6.2929 20.2250 31.9443
 2003 029   149   145   4127  1.9995  0.3490  0.3444  0.0988  1.9202 0.00000  8.376 13.784 30.077 25.171  6.2932 20.2254 31.9423
 2003 030   150   146   4103  1.6335  0.3273  0.0000  0.0000  2.1741 0.00000  7.946 13.099 32.949 27.220  6.2932 20.2254 31.9423
 2003 031   151   147   4083  1.2704  0.3043  0.0000  0.0000  2.2664 0.00000  7.533 12.456 33.943 28.214  6.2932 20.2254 31.9423
 2003 032   152   148   4066  0.8618  0.2838  0.0000  0.0000  1.9569 0.00000  7.138 11.850 30.544 26.606  6.2932 20.2254 31.9423
 2003 033   153   149   4051  0.7987  0.2622  0.0000  0.0000  2.1408 0.00000  6.766 11.284 33.602 27.803  6.2932 20.2254 31.9423

*DSSAT Cropping System Model Ver. 4.6.1.000 -release      OCT 19, 2016; 10:03:17
                                                                                
*RUN   4        : UYSB                      CRGRO046 UYSB0906    1              
 MODEL          : CRGRO046 - Soybean                                            
 EXPERIMENT     : UYSB0906 SN late to create DSS                                
 DATA PATH      :                                                               
 TREATMENT  1   : UYSB                      CRGRO046                            
  
@YEAR DOY   DAS   DAP   TWAD    PHAD    CMAD    CGRD    GRAD    MRAD    CHAD   CL%D   CS%D   TGNN   TGAV    GN%D    GL%D    GC%D
 2003 249     4     0      0  0.0000  0.0000  0.0000  0.0000  0.0000 0.00000  0.000  0.000 30.031 25.214  0.0000  0.0000  0.0000
 2003 250     5     1      0  0.0000  0.0000  0.0000  0.0000  0.0000 0.00000  0.000  0.000 20.985 18.016  0.0000  0.0000  0.0000
 2003 251     6     2      0  0.0000  0.0000  0.0000  0.0000  0.0000 0.00000  0.000  0.000 14.082 11.879  0.0000  0.0000  0.0000
 2003 252     7     3      0  0.0000  0.0000  0.0000  0.0000  0.0000 0.00000  0.000  0.000 12.027  8.912  0.0000  0.0000  0.0000
 2003 253     8     4      0  0.0000  0.0000  0.0000  0.0000  0.0000 0.00000  0.000  0.000 12.323  8.189  0.0000  0.0000  0.0000
 2003 254     9     5      0  0.0000  0.0000  0.0000  0.0000  0.0000 0.00000  0.000  0.000 15.172  9.317  0.0000  0.0000  0.0000
 2003 255    10     6      0  0.0000  0.0000  0.0000  0.0000  0.0000 0.00000  0.000  0.000 18.369 11.879  0.0000  0.0000  0.0000
 2003 256    11     7      0  0.0000  0.0000  0.0000  0.0000  0.0000 0.00000  0.000  0.000 12.709  9.899  0.0000  0.0000  0.0000
 2003 257    12     8      0  0.0000  0.0000  0.0000  0.0000  0.0000 0.00000  0.000  0.000 11.700  7.237  0.0000  0.0000  0.0000
 2003 258    13     9      8  0.0000  0.0001  0.0001  0.0000  0.0000 0.00000  3.986  7.972 13.561  9.199  0.0000  0.0000  0.0000
 2003 259    14    10      8  0.0581  0.0001  0.0366  0.0141  0.0021 0.00000  3.973  7.944 13.613  9.952  0.0000  0.0000  0.0000
 2003 260    15    11      8  0.0656  0.0002  0.0417  0.0155  0.0024 0.00000  3.959  7.914 14.727 10.253  0.0000  0.0000  0.0000
 2003 261    16    12      9  0.1123  0.0003  0.0725  0.0248  0.0049 0.00000  3.936  7.870 19.020 13.061  0.0000  0.0000  0.0000
 2003 262    17    13      9  0.0824  0.0005  0.0511  0.0178  0.0065 0.00000  3.894  7.787 23.137 17.809  0.0000  0.0000  0.0000
 2003 263    18    14     10  0.1100  0.0002  0.0714  0.0247  0.0042 0.00000  3.879  7.764 16.683 11.633  0.0000  0.0000  0.0000
 2003 264    19    15     11  0.1167  0.0004  0.0749  0.0257  0.0064 0.00000  3.852  7.716 19.794 15.165  0.0000  0.0000  0.0000
 2003 265    20    16     12  0.1449  0.0007  0.0923  0.0299  0.0111 0.00000  3.807  7.644 22.708 19.774  0.0000  0.0000  0.0000
 2003 266    21    17     12  0.1034  0.0006  0.0656  0.0223  0.0073 0.00000  3.773  7.585 19.115 17.028  0.0000  0.0000  0.0000
 2003 267    22    18     13  0.1455  0.0005  0.0940  0.0310  0.0076 0.00000  3.752  7.556 18.336 15.222  0.0000  0.0000  0.0000
 2003 268    23    19     14  0.1358  0.0004  0.0884  0.0288  0.0063 0.00000  3.738  7.540 17.328 13.328  0.0000  0.0000  0.0000
 2003 269    24    20     15  0.1141  0.0005  0.0733  0.0244  0.0064 0.00000  3.718  7.509 17.482 14.224  0.0000  0.0000  0.0000
 2003 270    25    21     16  0.2087  0.0007  0.1357  0.0425  0.0131 0.00000  3.689  7.483 21.659 17.691  0.0000  0.0000  0.0000
 2003 271    26    22     17  0.1091  0.0003  0.0711  0.0232  0.0048 0.00000  3.682  7.476 14.663 11.119  0.0000  0.0000  0.0000
 2003 272    27    23     18  0.1379  0.0003  0.0910  0.0289  0.0051 0.00000  3.677  7.478 15.407  9.770  0.0000  0.0000  0.0000
 2003 273    28    24     19  0.2487  0.0006  0.1640  0.0496  0.0122 0.00000  3.661  7.477 19.759 14.864  0.0000  0.0000  0.0000
 2003 274    29    25     21  0.2964  0.0010  0.1929  0.0575  0.0200 0.00000  3.632  7.455 24.298 18.373  0.0000  0.0000  0.0000
 2003 275    30    26     22  0.2230  0.0010  0.1358  0.0523  0.0157 0.00000  3.625  7.398 21.324 17.633  0.0000  0.0000  0.0000
 2003 276    31    27     23  0.1405  0.0010  0.0822  0.0354  0.0114 0.00000  3.615  7.334 19.707 16.405  0.0000  0.0000  0.0000
 2003 277    32    28     24  0.1604  0.0011  0.0950  0.0390  0.0137 0.00000  3.598  7.269 18.888 17.752  0.0000  0.0000  0.0000
 2003 278    33    29     26  0.3106  0.0014  0.1926  0.0677  0.0234 0.00000  3.581  7.241 22.478 19.529  0.0000  0.0000  0.0000
 2003 279    34    30     28  0.4114  0.0011  0.2598  0.0921  0.0213 0.00000  3.588  7.257 19.267 16.282  0.0000  0.0000  0.0000
 2003 280    35    31     32  0.5447  0.0013  0.3472  0.1159  0.0307 0.00000  3.587  7.292 22.145 17.523  0.0000  0.0000  0.0000
 2003 281    36    32     34  0.4035  0.0020  0.2621  0.0807  0.0357 0.00000  3.600  7.247 25.205 21.150  0.0000  0.0000  0.0000
 2003 282    37    33     38  0.6990  0.0017  0.4260  0.1577  0.0402 0.00000  3.604  7.277 21.800 18.171  0.0000  0.0000  0.0000
 2003 283    38    34     39  0.2279  0.0006  0.1377  0.0576  0.0095 0.00000  3.615  7.269 12.631 10.425  0.0000  0.0000  0.0000
 2003 284    39    35     41  0.3326  0.0006  0.2083  0.0792  0.0108 0.00000  3.629  7.283 13.441  9.418  0.0000  0.0000  0.0000
 2003 285    40    36     44  0.3783  0.0007  0.2389  0.0881  0.0124 0.00000  3.640  7.302 14.268  9.603  0.0000  0.0000  0.0000
 2003 286    41    37     47  0.5861  0.0011  0.3755  0.1303  0.0224 0.00000  3.647  7.336 17.658 12.030  0.0000  0.0000  0.0000
 2003 287    42    38     53  0.9255  0.0020  0.5924  0.1972  0.0478 0.00000  3.643  7.377 22.213 16.227  0.0000  0.0000  0.0000
 2003 288    43    39     61  1.1884  0.0030  0.7577  0.2480  0.0738 0.00000  3.630  7.408 24.160 18.957  0.0000  0.0000  0.0000
 2003 289    44    40     69  1.3578  0.0040  0.8430  0.2877  0.1069 0.00000  3.617  7.407 28.033 21.581  0.0000  0.0000  0.0000
 2003 290    45    41     77  1.3827  0.0052  0.8407  0.2992  0.1236 0.00000  3.602  7.376 28.168 23.176  0.0000  0.0000  0.0000
 2003 291    46    42     85  1.4165  0.0064  0.8457  0.3024  0.1571 0.00000  3.574  7.332 30.790 25.833  0.0000  0.0000  0.0000
 2003 292    47    43     95  1.6958  0.0049  1.0778  0.3674  0.1065 0.00000  3.565  7.356 22.463 19.074  0.0000  0.0000  0.0000
 2003 293    48    44    101  0.9273  0.0042  0.5837  0.2079  0.0584 0.00000  3.554  7.335 19.678 16.074  0.0000  0.0000  0.0000
 2003 294    49    45    113  1.9493  0.0052  1.2410  0.4305  0.1103 0.00000  3.555  7.360 21.773 17.669  0.0000  0.0000  0.0000
 2003 295    50    46    126  2.0894  0.0052  1.3286  0.4689  0.1114 0.00000  3.562  7.381 21.940 16.550  0.0000  0.0000  0.0000
 2003 296    51    47    143  2.7301  0.0074  1.7290  0.5936  0.1740 0.00000  3.561  7.398 24.784 18.999  0.0000  0.0000  0.0000
 2003 297    52    48    159  2.7538  0.0110  1.6920  0.5800  0.2564 0.00000  3.541  7.373 29.443 23.301  0.0000  0.0000  0.0000
 2003 298    53    49    170  1.9319  0.0120  1.1943  0.3994  0.1835 0.00000  3.507  7.321 24.056 22.020  0.0000  0.0000  0.0000
 2003 299    54    50    189  3.1374  0.0112  1.9047  0.7319  0.2254 0.00000  3.530  7.295 24.246 20.245  0.0000  0.0000  0.0000
 2003 300    55    51    206  2.8040  0.0071  1.7479  0.6669  0.1290 0.00000  3.556  7.302 18.975 14.544  0.0000  0.0000  0.0000
 2003 301    56    52    228  3.6678  0.0096  2.2712  0.8655  0.1934 0.00000  3.580  7.307 21.629 16.340  0.0000  0.0000  0.0000
 2003 302    57    53    257  4.8149  0.0133  2.9557  1.1417  0.2957 0.00000  3.600  7.308 24.119 18.543  0.0000  0.0000  0.0000
 2003 303    58    54    290  5.7614  0.0207  3.4354  1.3260  0.5167 0.00000  3.601  7.281 29.056 23.550  0.0000  0.0000  0.0000
 2003 304    59    55    304  2.5323  0.0128  1.5568  0.6054  0.1598 0.00000  3.592  7.253 18.680 15.676  0.0000  0.0000  0.0000
 2003 305    60    56    330  4.1189  0.0097  2.5845  0.9973  0.1693 0.00000  3.605  7.268 17.079 13.324  0.0000  0.0000  0.0000
 2003 306    61    57    356  4.2497  0.0094  2.6708  1.0228  0.1681 0.00000  3.618  7.286 17.762 12.218  0.0000  0.0000  0.0000
 2003 307    62    58    387  4.9752  0.0115  3.1183  1.1873  0.2108 0.00022  3.629  7.302 18.868 13.073  0.0000  0.0000  0.0000
 2003 308    63    59    424  6.1777  0.0178  3.8190  1.4631  0.3196 0.01647  3.663  7.398 20.549 15.933  0.0000  0.0000  0.0000
 2003 309    64    60    474  8.2527  0.0240  5.0403  1.9400  0.4802 0.04726  3.740  7.627 22.668 17.837  0.0000  0.0000  0.0000
 2003 310    65    61    532  9.7374  0.0332  5.8451  2.2825  0.6726 0.08991  3.851  7.971 24.731 20.043  0.0000  0.0000  0.0000
 2003 311    66    62    597 10.9658  0.0423  6.4904  2.5415  0.8376 0.14199  3.993  8.413 25.951 21.298  0.0000  0.0000  0.0000
 2003 312    67    63    661 11.1106  0.0521  6.4379  2.5507  0.9569 0.18445  4.140  8.877 27.600 22.303  0.0000  0.0000  0.0000
 2003 313    68    64    722 10.7233  0.0662  6.0363  2.4384  1.0655 0.21803  4.278  9.323 27.959 23.806  0.0000  0.0000  0.0000
 2003 314    69    65    812 15.6059  0.0692  8.8532  3.5810  1.3254 0.38129  4.521 10.055 28.213 22.664  0.0000  0.0000  0.0000
 2003 315    70    66    904 16.1050  0.0909  9.6208  3.2394  1.6972 0.47836  4.809 10.795 31.366 25.171  0.0000  0.0000  0.0000
 2003 316    71    67    950  8.5387  0.0650  4.9911  1.9072  0.5878 0.27542  4.922 11.134 19.316 17.060  0.0000  0.0000  0.0000
 2003 317    72    68   1020 12.4606  0.0587  6.4530  3.1199  0.6364 0.38371  5.057 11.599 18.352 15.415  0.0000  0.0000  0.0000
 2003 318    73    69   1110 15.4493  0.0660  8.5332  3.6191  0.7925 0.54428  5.267 12.206 20.675 15.482  0.0000  0.0000  0.0000
 2003 319    74    70   1229 20.8383  0.1189 12.0789  4.3960  1.5918 0.84605  5.602 13.006 26.849 20.545  0.0000  0.0000  0.0000
 2003 320    75    71   1272  9.3976  0.1341  4.5504  2.2770  0.9213 0.35351  5.639 13.181 21.316 19.812  0.0000  0.0000  0.0000
 2003 321    76    72   1360 16.2111  0.1591 10.2187  2.9164  1.4677 0.83212  5.918 13.804 25.172 21.482  0.0000  0.0000  0.0000
 2003 322    77    73   1408  9.3068  0.1067  5.5208  1.8644  0.6559 0.46734  6.038 14.098 17.422 15.667  0.0000  0.0000  0.0000
 2003 323    78    74   1546 23.7317  0.1656 12.4462  5.3133  1.6818 1.15509  6.251 14.806 23.886 19.694  0.0000  0.0000  0.0000
 2003 324    79    75   1647 19.0073  0.1316  9.4424  4.5503  1.0350 0.89298  6.420 15.292 18.961 15.736  0.0000  0.0000  0.0000
 2003 325    80    76   1785 25.4326  0.1796 13.4434  5.7615  1.6298 1.35724  6.701 15.987 23.516 17.818  0.0000  0.0000  0.0000
 2003 326    81    77   1928 28.1364  0.3055 14.0272  6.3122  3.0433 1.49399  6.935 16.574 30.701 24.430  0.0000  0.0000  0.0000
 2003 327    82    78   2064 28.0448  0.3810 13.5014  6.2818  3.6043 1.49371  7.130 17.054 32.061 26.722  0.0000  0.0000  0.0000
 2003 328    83    79   2105 10.5063  0.2440  4.7138  2.6937  1.0491 0.37665  7.147 17.072 18.854 17.420  0.0000  0.0000  0.0000
 2003 329    84    80   2262 29.4145  0.3245 15.0496  6.5561  2.4387 1.76650  7.392 17.684 25.665 20.576  0.0000  0.0000  0.0000
 2003 330    85    81   2378 22.9591  0.4417 13.3422  4.1070  2.7600 1.53704  7.643 18.132 27.935 23.814  0.0000  0.0000  0.0000
 2003 331    86    82   2553 31.6648  0.4658 17.1088  6.2019  3.2818 2.12292  7.894 18.729 27.597 23.368  0.0000  0.0000  0.0000
 2003 332    87    83   2664 22.6690  0.4526 10.2751  5.3314  2.3879 1.08277  7.898 18.853 25.765 21.177  0.0000  0.0000  0.0000
 2003 333    88    84   2858 33.3788  0.4856 19.3356  6.1653  3.1644 2.56590  8.234 19.566 27.056 21.644  0.0000  0.0000  0.0000
 2003 334    89    85   2940 16.9594  0.4615  9.1558  3.6043  1.8557 0.81699  8.270 19.625 21.430 19.387  0.0000  0.0000  0.0000
 2003 335    90    86   3136 32.9458  0.0000 17.7342  5.2934  3.0774 3.62041  8.896 21.157 24.764 21.216  0.0000  0.0000  0.0000
 2003 336    91    87   3308 29.3237  0.0000 16.0698  4.8992  2.6258 2.66799  9.308 22.109 24.016 19.535  0.0000  0.0000  0.0000
 2003 337    92    88   3491 31.2143  0.0000 15.2983  4.6446  3.4001 4.78714 10.103 24.094 27.049 21.851  0.0000  0.0000  0.0000
 2003 338    93    89   3606 23.3014  0.8511 13.2215  4.2854  3.1232 1.41111 10.149 24.095 26.335 22.428  0.0000  0.0000  0.0000
 2003 339    94    90   3816 33.5187  0.0000 13.8261  4.3364  2.8902 8.76676 11.584 27.795 23.256 19.134  0.0000  0.0000  0.0000
 2003 340    95    91   4009 31.5103  0.0000 15.3656  4.7746  2.5715 5.31114 12.306 29.523 23.228 17.421  0.0000  0.0000  0.0000
 2003 341    96    92   4152 27.9483  1.0505 16.0555  5.1385  3.1355 2.05951 12.349 29.447 25.252 20.305  0.0000  0.0000  0.0000
 2003 342    97    93   4229 19.5406  0.6148 11.0050  3.6195  2.3398 0.97043 12.409 29.446 22.502 18.487  6.2040 18.4885 34.2367
 2003 343    98    94   4375 27.1654  0.8653 16.0501  5.0836  2.2819 2.02595 12.474 29.451 20.643 16.736  6.2801 17.2793 34.9700
 2003 344    99    95   4576 33.7757  0.0000 15.9180  4.9171  3.3040 6.18727 13.268 31.298 25.323 18.944  6.2357 18.0424 34.4845
 2003 345   100    96   4688 27.1329  1.2914 15.3908  5.0678  3.1321 1.84021 13.266 31.142 24.798 19.423  6.2168 18.4229 34.2222
 2003 346   101    97   4837 27.5787  1.1105 15.8684  5.2081  2.5486 2.07416 13.297 31.072 22.007 16.918  6.2438 17.9307 34.5453
 2003 347   102    98   4957 27.0586  1.3978 15.1559  5.3332  3.1225 1.74984 13.283 30.906 23.174 19.340  6.2256 18.2745 34.3157
 2003 348   103    99   5100 33.0236  0.0000 17.0798  5.5027  4.2034 2.85054 13.592 31.460 25.928 21.700  6.2219 18.8037 33.8094
 2003 349   104   100   5117 16.4709  1.4204  9.4950  3.5371  2.7613 0.04013 13.499 31.133 22.775 19.479  6.2104 18.9085 33.7764
 2003 350   105   101   5219 25.1256  1.2367 14.0267  5.4247  2.3263 1.19529 13.479 30.974 19.816 16.090  6.2458 18.2659 34.1979
 2003 351   106   102   5366 29.1977  1.3866 15.8314  5.9072  2.8551 2.13359 13.489 30.887 22.238 17.222  6.2507 18.0803 34.3528
 2003 352   107   103   5520 34.0664  1.6360 19.4057  6.4195  3.6923 2.82038 13.523 30.842 24.712 19.087  6.2391 18.2332 34.2721
 2003 353   108   104   5564 28.5363  2.0794 14.4682  6.0797  4.6505 1.26530 13.424 30.506 27.485 22.863  6.2461 18.6488 33.8128
 2003 354   109   105   5589 18.9542  1.9704 10.6933  4.1944  3.5887 0.00000 13.264 30.032 24.190 21.467  6.2375 18.9470 33.5684
 2003 355   110   106   5690 33.0236  2.1802 17.1675  6.9510  5.3756 1.42935 13.161 29.695 28.305 24.005  6.2612 19.2242 33.1433
 2003 356   111   107   5723 20.9028  1.6712 11.6691  4.8031  2.8958 0.14758 13.038 29.313 22.224 18.247  6.2537 19.0790 33.3354
 2003 357   112   108   5814 28.4165  1.5966 14.3826  6.5904  3.0434 1.03340 12.974 29.076 22.232 17.466  6.2537 18.8705 33.5440
 2003 358   113   109   5927 28.3894  1.8208 14.8226  6.6061  3.6532 0.80681 12.873 28.752 24.085 19.463  6.2434 18.9132 33.5655
 2003 359   114   110   5984 34.2281  2.2091 18.3363  7.0745  5.4150 1.47061 12.770 28.434 27.851 23.408  6.2529 19.1142 33.3053
 2003 360   115   111   6036 31.7601  2.1702 15.7768  7.2875  5.1312 0.83392 12.630 28.026 27.790 22.917  6.2565 19.2909 33.1061
 2003 361   116   112   6010 15.6475  2.1506  8.7660  3.4375  3.9487 0.00000 12.440 27.486 25.555 22.474  6.2558 19.4365 32.9647
 2003 362   117   113   6032 22.5741  1.8100 11.6470  5.7525  3.2751 0.00000 12.286 27.026 21.741 19.161  6.2471 19.3803 33.0753
 2003 363   118   114   6134 26.7144  1.6036 13.7562  6.5427  2.9812 0.51554 12.186 26.707 22.108 17.019  6.2508 19.1556 33.2770
 2003 364   119   115   6232 31.6307  1.8824 15.9419  7.4569  4.2374 0.99659 12.086 26.402 26.120 19.992  6.2435 19.1884 33.2896
 2003 365   120   116   6270 27.4694  1.7672 14.3516  6.8890  3.3740 0.16692 11.944 25.977 21.686 18.425  6.2399 19.1157 33.3849
 2004 001   121   117   6335 30.1593  1.7358 15.2451  7.2843  3.6944 0.93791 11.853 25.704 24.903 18.201  6.2378 19.0432 33.4704
 2004 002   122   118   6438 31.8162  1.8179 16.1806  7.6749  4.0023 0.85929 11.747 25.393 25.128 19.035  6.2334 19.0299 33.5114
 2004 003   123   119   6520 32.6375  2.0505 16.5627  7.6515  5.0887 0.57082 11.593 24.964 27.646 21.875  6.2322 19.1395 33.4094
 2004 004   124   120   6561 27.9666  2.1946 13.8992  6.6141  5.6307 0.00000 11.381 24.374 29.025 24.007  6.2442 19.2583 33.2153
 2004 005   125   121   6614 28.8994  2.2998 13.8613  6.6743  6.7270 0.00000 11.152 23.743 30.851 26.442  6.2724 19.3607 32.9371
 2004 006   126   122   6600 30.2016  2.2084 14.3335  6.9501  6.8212 0.02703 10.932 23.134 31.646 26.162  6.2945 19.4483 32.7108
 2004 007   127   123   6644 25.0098  2.1451 12.0052  5.7665  6.2609 0.00000 10.709 22.520 30.919 25.900  6.3142 19.5332 32.5032
 2004 008   128   124   6654 30.2719  2.1135 14.3279  7.1664  6.4186 0.00000 10.485 21.905 29.420 25.477  6.3289 19.6096 32.3351
 2004 009   129   125   6689 28.7184  2.0694 13.6990  6.8094  6.4588 0.00000 10.260 21.287 29.658 25.823  6.3449 19.6804 32.1638
 2004 010   130   126   6725 26.6513  2.0101 12.6584  6.3921  6.2593 0.00000 10.037 20.674 29.470 25.670  6.3584 19.7445 32.0155
 2004 011   131   127   6760 29.0376  1.8661 14.0369  7.2916  5.4729 0.00000  9.828 20.095 25.981 23.544  6.3561 19.8040 31.9703
 2004 012   132   128   6776 23.5477  1.7699 11.5967  5.9173  4.9029 0.00000  9.626 19.534 26.068 22.807  6.3497 19.8534 31.9610
 2004 013   133   129   6831 26.0634  1.6929 12.6911  6.6765  4.9408 0.00000  9.430 18.985 26.249 22.414  6.3421 19.8932 31.9689
 2004 014   134   130   6875 28.4779  1.6924 13.7301  7.2299  5.5013 0.00000  9.228 18.426 27.584 23.319  6.3398 19.9357 31.9403
 2004 015   135   131   6915 24.6781  1.5479 12.1659  6.4475  4.5206 0.00000  9.041 17.904 25.231 21.360  6.3299 19.9476 31.9903
 2004 016   136   132   6983 27.4093  1.4470 13.4767  7.2479  4.3551 0.00000  8.862 17.406 25.146 20.272  6.3199 19.9271 32.0738
 2004 017   137   133   6982 17.4195  1.3958  8.7365  4.2790  4.5327 0.03553  8.696 16.934 26.779 22.264  6.3239 19.9335 32.0423
[...]
 2010 260    15    11      9  0.1039  0.0002  0.0666  0.0230  0.0042 0.00000  3.924  7.849 16.847 12.619  0.0000  0.0000  0.0000
 2010 261    16    12      9  0.0780  0.0002  0.0502  0.0173  0.0027 0.00000  3.913  7.827 14.499  9.739  0.0000  0.0000  0.0000
 2010 262    17    13     10  0.1336  0.0003  0.0867  0.0282  0.0058 0.00000  3.892  7.791 18.969 13.500  0.0000  0.0000  0.0000
 2010 263    18    14     11  0.1620  0.0004  0.1051  0.0334  0.0087 0.00000  3.863  7.747 22.536 15.509  0.0000  0.0000  0.0000
 2010 264    19    15     12  0.1429  0.0006  0.0913  0.0294  0.0097 0.00000  3.826  7.683 22.610 17.804  0.0000  0.0000  0.0000
 2010 265    20    16     13  0.1971  0.0007  0.1267  0.0394  0.0139 0.00000  3.785  7.624 23.190 19.584  0.0000  0.0000  0.0000
 2010 266    21    17     14  0.0718  0.0005  0.0444  0.0158  0.0056 0.00000  3.759  7.569 17.481 15.111  0.0000  0.0000  0.0000
 2010 267    22    18     15  0.1448  0.0004  0.0949  0.0310  0.0064 0.00000  3.746  7.557 17.571 12.618  0.0000  0.0000  0.0000
 2010 268    23    19     15  0.0763  0.0002  0.0494  0.0172  0.0032 0.00000  3.739  7.545 14.702  7.871  0.0000  0.0000  0.0000
 2010 269    24    20     16  0.1268  0.0003  0.0834  0.0272  0.0054 0.00000  3.729  7.536 17.382 10.477  0.0000  0.0000  0.0000
 2010 270    25    21     17  0.1620  0.0007  0.1049  0.0338  0.0099 0.00000  3.704  7.501 19.808 15.947  0.0000  0.0000  0.0000
 2010 271    26    22     19  0.2658  0.0009  0.1728  0.0536  0.0175 0.00000  3.673  7.477 23.644 18.328  0.0000  0.0000  0.0000
 2010 272    27    23     19  0.1117  0.0006  0.0716  0.0238  0.0072 0.00000  3.655  7.444 17.453 13.872  0.0000  0.0000  0.0000
 2010 273    28    24     21  0.2417  0.0007  0.1590  0.0503  0.0119 0.00000  3.641  7.439 18.732 14.653  0.0000  0.0000  0.0000
 2010 274    29    25     22  0.1668  0.0004  0.1102  0.0353  0.0071 0.00000  3.635  7.439 15.813 11.236  0.0000  0.0000  0.0000
 2010 275    30    26     23  0.2011  0.0005  0.1328  0.0424  0.0087 0.00000  3.629  7.438 16.179 12.168  0.0000  0.0000  0.0000
 2010 276    31    27     24  0.1930  0.0005  0.1194  0.0489  0.0084 0.00000  3.641  7.419 17.382 10.707  0.0000  0.0000  0.0000
 2010 277    32    28     26  0.2695  0.0007  0.1673  0.0668  0.0127 0.00000  3.652  7.401 19.097 13.095  0.0000  0.0000  0.0000
 2010 278    33    29     28  0.3082  0.0008  0.1934  0.0737  0.0150 0.00000  3.657  7.389 20.487 13.096  0.0000  0.0000  0.0000
 2010 279    34    30     30  0.4085  0.0012  0.2559  0.0943  0.0243 0.00000  3.653  7.372 22.960 16.597  0.0000  0.0000  0.0000
 2010 280    35    31     31  0.1927  0.0011  0.1163  0.0477  0.0135 0.00000  3.642  7.325 17.662 15.102  0.0000  0.0000  0.0000
 2010 281    36    32     34  0.4045  0.0012  0.2556  0.0940  0.0209 0.00000  3.640  7.322 19.305 15.250  0.0000  0.0000  0.0000
 2010 282    37    33     36  0.3551  0.0012  0.2241  0.0825  0.0188 0.00000  3.634  7.312 18.453 14.717  0.0000  0.0000  0.0000
 2010 283    38    34     38  0.4211  0.0010  0.2699  0.0966  0.0185 0.00000  3.635  7.327 17.768 13.142  0.0000  0.0000  0.0000
 2010 284    39    35     41  0.4590  0.0011  0.2956  0.1030  0.0211 0.00000  3.632  7.342 18.573 13.483  0.0000  0.0000  0.0000
 2010 285    40    36     45  0.6661  0.0018  0.4197  0.1535  0.0367 0.00000  3.633  7.347 21.704 16.434  0.0000  0.0000  0.0000
 2010 286    41    37     50  0.8268  0.0024  0.5179  0.1862  0.0537 0.00000  3.626  7.349 24.327 18.628  0.0000  0.0000  0.0000
 2010 287    42    38     53  0.4117  0.0025  0.2528  0.0936  0.0326 0.00000  3.604  7.303 19.891 17.789  0.0000  0.0000  0.0000
 2010 288    43    39     56  0.4636  0.0014  0.2963  0.1056  0.0223 0.00000  3.601  7.309 19.217 11.127  0.0000  0.0000  0.0000
 2010 289    44    40     58  0.3584  0.0020  0.2198  0.0858  0.0238 0.00000  3.591  7.278 17.145 14.686  0.0000  0.0000  0.0000
 2010 290    45    41     62  0.7212  0.0015  0.4643  0.1644  0.0299 0.00000  3.596  7.310 17.628 12.779  0.0000  0.0000  0.0000
 2010 291    46    42     68  0.8974  0.0020  0.5814  0.1971  0.0410 0.00000  3.595  7.346 20.083 13.699  0.0000  0.0000  0.0000
 2010 292    47    43     74  1.0149  0.0024  0.6579  0.2197  0.0495 0.00000  3.591  7.377 21.126 14.348  0.0000  0.0000  0.0000
 2010 293    48    44     83  1.3553  0.0038  0.8527  0.3054  0.0825 0.00000  3.592  7.381 23.464 17.933  0.0000  0.0000  0.0000
 2010 294    49    45     92  1.6052  0.0049  1.0019  0.3572  0.1119 0.00000  3.588  7.380 25.912 19.523  0.0000  0.0000  0.0000
 2010 295    50    46    101  1.4918  0.0056  0.9375  0.3225  0.1081 0.00000  3.571  7.366 23.754 19.827  0.0000  0.0000  0.0000
 2010 296    51    47    111  1.4939  0.0042  0.9536  0.3342  0.0779 0.00000  3.571  7.375 20.291 15.721  0.0000  0.0000  0.0000
 2010 297    52    48    119  1.3450  0.0047  0.8574  0.2954  0.0782 0.00000  3.563  7.370 20.989 15.918  0.0000  0.0000  0.0000
 2010 298    53    49    129  1.6767  0.0055  1.0714  0.3674  0.0949 0.00000  3.556  7.370 20.274 16.595  0.0000  0.0000  0.0000
 2010 299    54    50    140  1.6512  0.0044  1.0639  0.3649  0.0789 0.00000  3.558  7.384 19.820 13.817  0.0000  0.0000  0.0000
 2010 300    55    51    152  2.0216  0.0074  1.2769  0.4461  0.1276 0.00000  3.551  7.372 21.767 17.800  0.0000  0.0000  0.0000
 2010 301    56    52    168  2.6222  0.0083  1.6638  0.5700  0.1646 0.00000  3.546  7.375 23.556 18.088  0.0000  0.0000  0.0000
 2010 302    57    53    175  1.1188  0.0074  0.6939  0.2507  0.0837 0.00000  3.532  7.335 19.226 15.865  0.0000  0.0000  0.0000
 2010 303    58    54    190  2.3586  0.0069  1.5137  0.5212  0.1186 0.00000  3.533  7.347 19.620 15.008  0.0000  0.0000  0.0000
 2010 304    59    55    208  2.9540  0.0092  1.8941  0.6286  0.1700 0.00000  3.528  7.358 22.248 16.706  0.0000  0.0000  0.0000
 2010 305    60    56    229  3.3060  0.0112  2.1148  0.6921  0.2051 0.00000  3.518  7.362 22.900 17.714  0.0000  0.0000  0.0000
 2010 306    61    57    250  3.6467  0.0121  2.2342  0.8622  0.2300 0.00000  3.545  7.341 24.242 17.410  0.0000  0.0000  0.0000
 2010 307    62    58    276  4.3784  0.0166  2.6399  1.0285  0.3452 0.00000  3.560  7.307 27.535 20.416  0.0000  0.0000  0.0000
 2010 308    63    59    300  4.2947  0.0205  2.5531  0.9955  0.4004 0.00000  3.558  7.258 28.717 22.277  0.0000  0.0000  0.0000
 2010 309    64    60    335  5.8128  0.0186  3.5512  1.3802  0.3880 0.00000  3.575  7.251 24.711 19.236  0.0000  0.0000  0.0000
 2010 310    65    61    372  6.1132  0.0179  3.7631  1.4567  0.3650 0.00000  3.591  7.254 23.660 17.541  0.0000  0.0000  0.0000
 2010 311    66    62    416  7.5252  0.0271  4.5014  1.7338  0.6579 0.00000  3.594  7.235 29.741 22.296  0.0000  0.0000  0.0000
 2010 312    67    63    464  8.6360  0.0339  5.0683  1.9617  0.9109 0.00000  3.589  7.209 32.607 25.054  0.0000  0.0000  0.0000
 2010 313    68    64    477  2.2233  0.0100  1.3815  0.5226  0.1185 0.00000  3.586  7.200 13.638 11.204  0.0000  0.0000  0.0000
 2010 314    69    65    517  6.5433  0.0153  4.1035  1.5380  0.2787 0.00000  3.600  7.221 19.246 12.766  0.0000  0.0000  0.0000
 2010 315    70    66    556  6.3095  0.0151  3.9716  1.4822  0.2595 0.00000  3.611  7.238 17.977 12.319  0.0000  0.0000  0.0000
 2010 316    71    67    602  7.3790  0.0202  4.6108  1.7433  0.3406 0.00000  3.618  7.248 18.891 14.021  0.0000  0.0000  0.0000
 2010 317    72    68    658  9.1470  0.0253  5.6871  2.1601  0.4503 0.01416  3.640  7.310 20.270 15.077  0.0000  0.0000  0.0000
 2010 318    73    69    712  9.0417  0.0319  5.5592  2.1220  0.5114 0.03635  3.674  7.418 21.029 16.230  0.0000  0.0000  0.0000
 2010 319    74    70    776 10.5884  0.0429  6.4213  2.4861  0.6900 0.07346  3.731  7.602 21.979 18.326  0.0000  0.0000  0.0000
 2010 320    75    71    851 12.5619  0.0466  7.6065  2.9552  0.7729 0.12367  3.822  7.887 21.480 18.077  0.0000  0.0000  0.0000
 2010 321    76    72    937 14.2783  0.0535  8.5871  3.3435  0.9022 0.18169  3.937  8.244 22.970 18.242  0.0000  0.0000  0.0000
 2010 322    77    73   1036 16.3940  0.0565  9.8162  3.8503  0.9834 0.25273  4.078  8.674 23.607 17.410  0.0000  0.0000  0.0000
 2010 323    78    74   1096 10.4746  0.0655  6.0853  2.4486  0.7875 0.18487  4.147  8.907 23.771 17.466  0.0000  0.0000  0.0000
 2010 324    79    75   1198 17.6600  0.0972 10.1246  4.0432  1.5182 0.36874  4.293  9.359 27.225 21.564  0.0000  0.0000  0.0000
 2010 325    80    76   1314 20.5774  0.1307 12.2083  4.3607  1.9998 0.53323  4.516  9.929 26.525 23.981  0.0000  0.0000  0.0000
 2010 326    81    77   1442 21.8254  0.1183 12.9833  4.7249  1.6401 0.64315  4.743 10.545 24.641 20.305  0.0000  0.0000  0.0000
 2010 327    82    78   1553 19.0624  0.1381 11.3418  4.0526  1.5617 0.63042  4.928 11.042 24.309 20.403  0.0000  0.0000  0.0000
 2010 328    83    79   1659 18.9627  0.1712  9.9706  4.4549  1.8345 0.61887  5.028 11.429 26.815 21.870  0.0000  0.0000  0.0000
 2010 329    84    80   1831 28.9295  0.1545 17.0988  6.2658  2.0305 1.15438  5.327 12.216 25.633 19.146  0.0000  0.0000  0.0000
 2010 330    85    81   2008 30.8169  0.2242 17.6221  6.3329  2.8198 1.31961  5.601 12.933 28.514 22.493  0.0000  0.0000  0.0000
 2010 331    86    82   2178 29.1827  0.2670 17.1900  5.6238  3.1432 1.36164  5.844 13.547 30.884 23.716  0.0000  0.0000  0.0000
 2010 332    87    83   2285 18.3435  0.1962 10.7692  3.8264  1.3413 0.91500  5.983 13.905 20.180 16.954  0.0000  0.0000  0.0000
 2010 333    88    84   2405 20.4371  0.1867 11.9077  4.2702  1.3501 1.05773  6.138 14.311 20.878 15.788  0.0000  0.0000  0.0000
 2010 334    89    85   2628 34.6209  0.2488 21.5584  6.0849  2.4899 2.05905  6.442 15.101 26.324 17.901  0.0000  0.0000  0.0000
 2010 335    90    86   2856 36.1662  0.0000 19.9161  5.2700  3.5779 4.41794  7.335 17.531 29.209 22.327  0.0000  0.0000  0.0000
 2010 336    91    87   3064 35.0625  0.0000 19.9448  5.3855  4.4175 2.53001  7.715 18.451 32.132 25.035  0.0000  0.0000  0.0000
 2010 337    92    88   3249 33.5782  0.5964 18.5441  6.6184  3.8838 2.01576  7.822 18.680 28.822 23.553  0.0000  0.0000  0.0000
 2010 338    93    89   3470 36.9385  0.5481 21.8625  6.8225  3.6575 2.40005  7.977 19.021 28.399 21.194  0.0000  0.0000  0.0000
 2010 339    94    90   3707 39.7167  0.6564 23.5674  7.1679  4.2041 2.68140  8.135 19.368 28.385 22.471  0.0000  0.0000  0.0000
 2010 340    95    91   3954 39.9928  0.6312 24.2298  7.0694  3.9172 2.84215  8.297 19.738 28.052 20.703  0.0000  0.0000  0.0000
 2010 341    96    92   4206 40.7830  0.6252 24.4599  7.0776  4.3195 2.96743  8.452 20.106 30.583 20.367  0.0000  0.0000  0.0000
 2010 342    97    93   4383 32.7692  0.7287 17.8970  6.2995  3.5493 2.22750  8.538 20.290 26.885 20.146  0.0000  0.0000  0.0000
 2010 343    98    94   4601 42.2958  1.0617 22.2519  7.8103  6.0962 2.95127  8.639 20.507 30.369 25.997  0.0000  0.0000  0.0000
 2010 344    99    95   4798 37.5512  0.8375 19.5184  7.0223  5.0653 2.64513  8.734 20.729 32.154 22.370  0.0000  0.0000  0.0000
 2010 345   100    96   4950 30.8166  1.0234 16.6068  5.4550  4.7583 2.09433  8.787 20.814 30.118 23.452  0.0000  0.0000  0.0000
 2010 346   101    97   5014 13.7353  0.0000  7.4594  2.4169  1.7292 0.68685  8.872 20.975 19.240 15.047  0.0000  0.0000  0.0000
 2010 347   102    98   5207 34.3261  0.6045 18.4629  6.7552  2.7492 2.66892  8.991 21.265 23.348 15.142  0.0000  0.0000  0.0000
 2010 348   103    99   5468 44.0045  0.8345 25.3226  7.9218  4.2533 3.56995  9.149 21.634 27.130 18.602  0.0000  0.0000  0.0000
 2010 349   104   100   5697 43.8664  1.1802 23.2471  8.0291  5.6926 3.37086  9.263 21.875 29.351 22.758  0.0000  0.0000  0.0000
 2010 350   105   101   5926 44.6924  1.2986 23.4032  8.1489  6.1140 3.45680  9.370 22.099 29.538 23.447  0.0000  0.0000  0.0000
 2010 351   106   102   6150 45.0466  1.4833 23.5433  8.0278  6.9838 3.44456  9.463 22.282 30.505 25.130  0.0000  0.0000  0.0000
 2010 352   107   103   6318 37.4239  1.5986 19.1916  6.5939  6.6660 2.40935  9.490 22.294 30.085 25.463  0.0000  0.0000  0.0000
 2010 353   108   104   6388 20.7156  1.3254 11.7607  3.6900  3.7829 0.53810  9.448 22.106 22.902 20.753  0.0000  0.0000  0.0000
 2010 354   109   105   6505 33.9999  1.7155 17.5682  6.0666  6.0440 1.83613  9.439 22.028 27.143 24.563  0.0000  0.0000  0.0000
 2010 355   110   106   6699 43.9858  1.6348 22.4755  7.9682  6.7419 3.06788  9.513 22.166 29.686 23.990  6.3687 20.5000 31.1959
 2010 356   111   107   6898 45.5608  1.8271 23.2197  8.2128  7.6669 3.21491  9.585 22.292 30.806 25.432  6.4454 20.5000 30.7162
 2010 357   112   108   7086 45.7188  1.9037 23.1791  8.4270  7.6155 2.95450  9.630 22.364 30.419 25.080  6.4542 20.5000 30.6611
 2010 358   113   109   7109 21.4068  0.5179 10.8450  3.5277  5.0833 0.37753  9.684 22.388 25.696 23.259  6.3927 20.4952 31.0503
 2010 359   114   110   7272 44.5355  2.1187 21.2425  8.5792  8.1417 2.52398  9.676 22.352 30.831 26.066  6.4499 20.4969 30.6911
 2010 360   115   111   7448 45.8055  2.0297 22.7280  8.3042  7.7469 3.04302  9.723 22.431 31.032 24.654  6.4431 20.4979 30.7331
 2010 361   116   112   7552 45.0316  2.2362 21.4921  8.7962  8.3836 2.54942  9.738 22.410 31.437 25.883  6.4688 20.4985 30.5713
 2010 362   117   113   7723 45.3684  2.0524 22.5490  9.4268  6.5855 2.35254  9.757 22.397 27.656 22.424  6.4007 20.4639 31.0320
 2010 363   118   114   7859 42.0044  2.3251 20.7070  8.6367  7.3420 1.58382  9.710 22.217 28.321 24.343  6.4005 20.4732 31.0238
 2010 364   119   115   7990 45.3479  2.1501 22.2933  9.7360  6.5550 1.99810  9.701 22.139 27.060 22.115  6.3630 20.4397 31.2918
 2010 365   120   116   8135 44.6026  2.3785 21.8841  9.4214  7.6031 1.52856  9.647 21.947 28.765 24.106  6.3664 20.4527 31.2573
 2011 001   121   117   8205 37.1331  2.3907 19.0770  7.8851  7.1713 0.38875  9.525 21.577 29.164 23.967  6.3665 20.4616 31.2481
 2011 002   122   118   8281 31.7404  2.3122 16.5154  6.9769  6.0518 0.00000  9.386 21.156 25.884 22.622  6.3459 20.4536 31.3845
 2011 003   123   119   8303 20.6373  2.1696 11.6513  4.1741  4.8642 0.00000  9.256 20.759 23.424 21.345  6.3200 20.3911 31.6088
 2011 004   124   120   8337 30.8132  2.4294 15.2151  6.6238  6.9686 0.00000  9.105 20.307 28.546 24.388  6.3334 20.4084 31.5079
 2011 005   125   121   8354 29.4846  2.4543 14.9756  6.2003  7.1762 0.00000  8.950 19.844 28.852 24.981  6.3526 20.4227 31.3736
 2011 006   126   122   8447 43.4071  2.3820 21.1273  9.5863  8.4082 0.55097  8.835 19.491 30.294 25.204  6.3713 20.4345 31.2448
 2011 007   127   123   8544 42.8581  2.6132 19.5403  8.9559 10.7118 0.62162  8.703 19.102 33.141 28.983  6.4312 20.4434 30.8617
 2011 008   128   124   8608 38.7013  2.4725 18.2630  8.6528  8.8254 0.00000  8.540 18.621 30.699 26.433  6.4522 20.4511 30.7228
 2011 009   129   125   8667 39.1510  2.4703 18.3443  8.7476  9.3709 0.00000  8.375 18.135 31.556 27.183  6.4778 20.4574 30.5566
 2011 010   130   126   8681 25.6011  2.1638 12.7457  5.7142  6.4177 0.00000  8.232 17.705 28.881 23.254  6.4557 20.4614 30.6906
 2011 011   131   127   8699 26.1225  2.1703 13.2007  5.9346  6.2004 0.00000  8.090 17.267 25.813 23.197  6.4356 20.4644 30.8129
 2011 012   132   128   8751 32.6166  2.1686 15.9709  7.5285  6.9295 0.00000  7.946 16.823 27.055 23.757  6.4250 20.4687 30.8752
 2011 013   133   129   8827 39.1769  2.0852 19.1366  9.2137  7.2032 0.00000  7.807 16.389 27.441 23.319  6.4122 20.4713 30.9527
 2011 014   134   130   8877 40.4124  2.0751 19.7490  9.5794  7.5338 0.00000  7.665 15.951 27.765 23.715  6.4049 20.4744 30.9952
 2011 015   135   131   8957 40.9397  2.1055 19.2205  9.7811  9.0019 0.00000  7.514 15.496 31.054 25.930  6.4188 20.4770 30.9054
 2011 016   136   132   8991 32.4662  2.1192 14.9404  7.3664  9.2999 0.00000  7.358 15.031 32.624 27.427  6.4429 20.4792 30.7527
 2011 017   137   133   9043 32.1054  1.9608 15.3739  7.9011  7.5425 0.00000  7.213 14.593 28.848 24.511  6.4401 20.4813 30.7681
 2011 018   138   134   9124 37.5654  1.8900 17.5671  9.3522  8.1689 0.00000  7.071 14.162 30.061 24.722  6.4395 20.4830 30.7703
 2011 019   139   135   9209 37.6360  1.8575 17.4133  9.3747  8.4630 0.00000  6.927 13.732 30.530 25.119  6.4421 20.4845 30.7527
 2011 020   140   136   9294 37.5273  1.8089 17.2658  9.4934  8.2788 0.00000  6.784 13.305 29.790 24.810  6.4420 20.4858 30.7518
 2011 021   141   137   9392 36.6969  1.5992 17.4852  9.6087  6.7022 0.00000  6.656 12.921 28.035 21.622  6.4235 20.4624 30.8904
 2011 022   142   138   9466 34.7211  1.3630 15.6123  8.7657  8.5019 0.11872  6.571 12.630 30.020 25.398  6.4503 20.4209 30.7648
 2011 023   143   139   9522 35.7722  1.3590 15.9203  9.0602  8.8988 0.11221  6.482 12.331 30.502 25.845  6.4750 20.3877 30.6434
 2011 024   144   140   9574 32.0098  1.3939 13.2523  7.2186 10.6185 0.11943  6.386 12.017 32.989 29.084  6.5133 20.3549 30.4371
 2011 025   145   141   9629 30.7292  1.4032 13.4479  7.2789  9.0804 0.08372  6.275 11.681 31.088 26.933  6.5321 20.3369 30.3377
 2011 026   146   142   9634 16.4594  1.4174  7.3319  2.4434  7.9156 0.04102  6.145 11.318 33.817 26.402  6.5330 20.3424 30.3261
 2011 027   147   143   9693 27.3146  1.3744 12.0305  6.1485  8.4347 0.05986  6.021 10.967 30.680 26.526  6.5440 20.3323 30.2674
 2011 028   148   144   9764 30.1980  1.2667 12.8193  7.1472  9.0244 0.08486  5.908 10.649 31.448 27.222  6.5604 20.3167 30.1811
 2011 029   149   145   9834 29.5164  1.1865 12.5577  7.1312  8.4949 0.09145  5.801 10.350 30.874 26.469  6.5732 20.3005 30.1172
 2011 030   150   146   9849 16.8984  1.4168  7.6236  3.1204  7.1740 0.00358  5.641  9.949 30.413 25.866  6.5726 20.3046 30.1164
 2011 031   151   147   9846 13.4616  1.3878  5.9793  1.9610  7.0019 0.00000  5.476  9.549 30.636 26.161  6.5724 20.3084 30.1141
 2011 032   152   148   9903 23.3831  1.1215 10.4875  5.6953  6.3545 0.05201  5.351  9.239 26.626 23.654  6.5708 20.3021 30.1302
 2011 033   153   149   9987 28.2174  0.8009 12.3649  7.5070  5.9528 0.11277  5.276  9.043 28.104 21.553  6.5700 20.2708 30.1669
 2011 034   154   150  10052 26.3510  0.9436 10.6924  6.3995  7.6855 0.08893  5.173  8.792 32.183 25.346  6.5772 20.2578 30.1348
 2011 035   155   151  10096 20.9557  1.0611  8.7480  4.8025  6.8123 0.05188  5.041  8.490 29.345 24.943  6.5796 20.2524 30.1250
 2011 036   156   152  10150 24.3338  0.9389  9.4167  5.6408  8.0438 0.08644  4.928  8.233 32.082 26.786  6.5896 20.2403 30.0748
 2011 037   157   153  10197 19.8472  1.0895  8.8094  3.0853  6.7013 0.02540  4.777  7.904 28.950 25.086  6.5214 20.3810 30.3602
 2011 038   158   154   9873 17.6065  1.1153  7.3819  3.1715  6.4899 0.00000  4.551  7.047 28.931 25.032  6.4890 20.4478 30.4960
 2011 039   159   155   9565  8.2773  0.8436  3.6245  1.2864  4.1419 0.00000  4.350  6.335 22.396 21.394  6.4862 20.4446 30.5164
 2011 040   160   156   9326  8.2007  0.6985  3.4920  1.3234  3.8488 0.00000  4.159  5.726 22.066 20.993  6.4835 20.4402 30.5377
 2011 041   161   157   9125  6.7009  0.5994  2.6326  0.8451  3.7974 0.00000  3.973  5.199 23.741 21.381  6.4816 20.4380 30.5520
 2011 042   162   158   8986  8.8349  0.5387  3.2767  1.2950  4.3281 0.00000  3.785  4.734 25.211 23.030  6.4800 20.4383 30.5619
 2011 043   163   159   8855  5.2492  0.4504  1.6356  0.4692  3.6506 0.00000  3.610  4.340 24.686 21.720  6.4789 20.4373 30.5698
 2011 044   164   160   8759  5.3830  0.3910  1.7758  0.5257  3.5088 0.00000  3.445  4.000 25.272 21.305  6.4776 20.4357 30.5794
 2011 045   165   161   8677  4.0524  0.3425  0.8998  0.2581  3.2715 0.00000  3.284  3.707 25.063 20.847  6.4769 20.4345 30.5848
 2011 046   166   162   8610  3.0299  0.2854  0.5285  0.1516  2.6715 0.00000  3.141  3.461 24.460 18.315  6.4766 20.4317 30.5898
 2011 047   167   163   8551  2.4768  0.2855  0.0000  0.0000  3.3673 0.00000  2.986  3.233 26.837 21.622  6.4766 20.4317 30.5898
 2011 048   168   164   8500  2.0027  0.2836  0.0000  0.0000  4.2499 0.00000  2.826  3.017 29.291 25.184  6.4766 20.4317 30.5898
 2011 049   169   165   8458  1.5141  0.2600  0.0000  0.0000  4.1686 0.00000  2.675  2.825 29.270 25.128  6.4766 20.4317 30.5898
