*PLANT C OUTPUT FILE

*DSSAT Cropping System Model Ver. 4.6.1.000 -release      NOV 01, 2016; 12:10:37
                                                                                
*RUN   1        : UYSB                      CRGRO046 UYSB1026    1              
 MODEL          : CRGRO046 - Soybean                                            
 EXPERIMENT     : UYSB1026 SN late to create DSS                                
 DATA PATH      :                                                               
 TREATMENT  1   : UYSB                      CRGRO046                            
  
@YEAR DOY   DAS   DAP   TWAD    PHAD    CMAD    CGRD    GRAD    MRAD    CHAD   CL%D   CS%D   TGNN   TGAV    GN%D    GL%D    GC%D
 1990 306     4     0      0  0.0000  0.0000  0.0000  0.0000  0.0000 0.00000  0.000  0.000 25.166 20.624  0.0000  0.0000  0.0000
 1990 307     5     1      0  0.0000  0.0000  0.0000  0.0000  0.0000 0.00000  0.000  0.000 27.049 24.438  0.0000  0.0000  0.0000
 1990 308     6     2      0  0.0000  0.0000  0.0000  0.0000  0.0000 0.00000  0.000  0.000 20.564 16.485  0.0000  0.0000  0.0000
 1990 309     7     3      0  0.0000  0.0000  0.0000  0.0000  0.0000 0.00000  0.000  0.000 17.197 12.688  0.0000  0.0000  0.0000
 1990 310     8     4      0  0.0000  0.0000  0.0000  0.0000  0.0000 0.00000  0.000  0.000 19.573 15.494  0.0000  0.0000  0.0000
 1990 311     9     5      0  0.0000  0.0000  0.0000  0.0000  0.0000 0.00000  0.000  0.000 22.077 18.498  0.0000  0.0000  0.0000
 1990 312    10     6      8  0.0000  0.0003  0.0002  0.0001  0.0000 0.00000  3.966  7.928 17.393 14.851  0.0000  0.0000  0.0000
 1990 313    11     7      8  0.1194  0.0004  0.0754  0.0256  0.0078 0.00000  3.920  7.840 21.281 18.704  0.0000  0.0000  0.0000
 1990 314    12     8      9  0.1702  0.0005  0.1086  0.0357  0.0109 0.00000  3.878  7.768 23.234 19.260  0.0000  0.0000  0.0000
 1990 315    13     9     11  0.2095  0.0006  0.1330  0.0428  0.0153 0.00000  3.832  7.697 25.354 21.164  0.0000  0.0000  0.0000
 1990 316    14    10     12  0.1468  0.0006  0.0936  0.0297  0.0108 0.00000  3.790  7.629 23.140 19.416  0.0000  0.0000  0.0000
 1990 317    15    11     13  0.2688  0.0010  0.1643  0.0528  0.0299 0.00000  3.739  7.557 32.604 26.731  0.0000  0.0000  0.0000
 1990 318    16    12     14  0.2230  0.0011  0.1353  0.0435  0.0272 0.00000  3.682  7.469 31.297 26.927  0.0000  0.0000  0.0000
 1990 319    17    13     15  0.1504  0.0009  0.0955  0.0300  0.0132 0.00000  3.641  7.409 22.378 20.265  0.0000  0.0000  0.0000
 1990 320    18    14     17  0.2270  0.0007  0.1484  0.0466  0.0133 0.00000  3.619  7.402 20.724 17.178  0.0000  0.0000  0.0000
 1990 321    19    15     19  0.3547  0.0008  0.2330  0.0701  0.0205 0.00000  3.602  7.422 23.771 17.753  0.0000  0.0000  0.0000
 1990 322    20    16     21  0.3982  0.0014  0.2368  0.0913  0.0349 0.00000  3.616  7.357 27.874 23.145  0.0000  0.0000  0.0000
 1990 323    21    17     24  0.4802  0.0018  0.2783  0.1043  0.0560 0.00000  3.611  7.290 31.799 27.643  0.0000  0.0000  0.0000
 1990 324    22    18     26  0.3604  0.0019  0.2155  0.0753  0.0383 0.00000  3.580  7.230 27.050 24.578  0.0000  0.0000  0.0000
 1990 325    23    19     30  0.7166  0.0019  0.4417  0.1511  0.0604 0.00000  3.578  7.269 27.340 23.793  0.0000  0.0000  0.0000
 1990 326    24    20     35  0.7940  0.0020  0.4871  0.1815  0.0585 0.00000  3.594  7.293 26.259 21.708  0.0000  0.0000  0.0000
 1990 327    25    21     41  0.9545  0.0022  0.5931  0.2120  0.0678 0.00000  3.602  7.333 26.284 21.268  0.0000  0.0000  0.0000
 1990 328    26    22     47  1.0183  0.0029  0.6305  0.2192  0.0824 0.00000  3.592  7.350 27.075 22.810  0.0000  0.0000  0.0000
 1990 329    27    23     53  1.0144  0.0036  0.6254  0.2143  0.0914 0.00000  3.571  7.344 27.701 23.759  0.0000  0.0000  0.0000
 1990 330    28    24     60  1.2223  0.0033  0.7793  0.2613  0.0823 0.00000  3.605  7.358 23.662 20.401  0.0000  0.0000  0.0000
 1990 331    29    25     67  1.1610  0.0024  0.7202  0.2732  0.0542 0.00000  3.623  7.377 19.679 15.665  0.0000  0.0000  0.0000
 1990 332    30    26     77  1.5029  0.0031  0.9526  0.3309  0.0786 0.00000  3.631  7.410 22.485 16.894  0.0000  0.0000  0.0000
 1990 333    31    27     88  1.9160  0.0047  1.2084  0.4055  0.1238 0.00000  3.627  7.432 25.083 19.743  0.0000  0.0000  0.0000
 1990 334    32    28     97  1.4159  0.0060  0.8831  0.2911  0.1133 0.00000  3.601  7.401 25.192 20.927  0.0000  0.0000  0.0000
 1990 335    33    29    109  2.0397  0.0064  1.2831  0.4262  0.1457 0.00000  3.588  7.402 24.821 20.628  0.0000  0.0000  0.0000
 1990 336    34    30    116  1.0760  0.0063  0.6628  0.2333  0.0872 0.00000  3.567  7.353 22.233 18.864  0.0000  0.0000  0.0000
 1990 337    35    31    130  2.2974  0.0058  1.4617  0.5130  0.1238 0.00000  3.573  7.376 21.353 17.230  0.0000  0.0000  0.0000
 1990 338    36    32    148  2.9134  0.0079  1.8419  0.6243  0.1916 0.00000  3.570  7.395 25.575 19.374  0.0000  0.0000  0.0000
 1990 339    37    33    161  2.3642  0.0135  1.4098  0.4785  0.2837 0.00000  3.534  7.331 30.689 26.388  0.0000  0.0000  0.0000
 1990 340    38    34    175  2.6131  0.0118  1.6110  0.5766  0.2164 0.00000  3.570  7.282 24.514 21.611  0.0000  0.0000  0.0000
 1990 341    39    35    199  3.9490  0.0000  1.9075  0.4782  0.2739 0.93768 12.077 14.747 23.968 20.670  0.0000  0.0000  0.0000
 1990 342    40    36    222  3.8946  0.0236  2.4421  0.8791  0.2412 0.00000 10.906 13.799 23.261 18.601  0.0000  0.0000  0.0000
 1990 343    41    37    226  1.7223  0.0215  0.1849  0.6669  0.1297 0.00000 10.406 13.536 18.965 16.994  0.0000  0.0000  0.0000
 1990 344    42    38    234  1.8831  0.0229  1.2043  0.4034  0.1459 0.00000  9.971 13.093 19.019 17.729  0.0000  0.0000  0.0000
 1990 345    43    39    264  4.9686  0.0279  2.9534  1.1505  0.3317 0.00000  9.043 12.293 23.626 19.934  0.0000  0.0000  0.0000
 1990 346    44    40    282  3.2538  0.0215  1.7950  0.8055  0.1914 0.00000  8.550 11.863 20.467 16.345  0.0000  0.0000  0.0000
 1990 347    45    41    311  5.0379  0.0291  3.0040  1.1558  0.3327 0.00000  7.952 11.302 22.707 19.231  0.0000  0.0000  0.0000
 1990 348    46    42    346  5.7433  0.0232  3.5410  1.3166  0.2875 0.00000  7.441 10.824 20.355 16.198  0.0000  0.0000  0.0000
 1990 349    47    43    397  8.5125  0.0331  5.2126  1.9357  0.5359 0.00594  6.891 10.321 25.117 19.241  0.0000  0.0000  0.0000
 1990 350    48    44    453  9.3760  0.0439  5.6293  2.1133  0.7494 0.03477  6.479 10.031 28.004 22.092  0.0000  0.0000  0.0000
 1990 351    49    45    493  7.1556  0.0553  4.1780  1.5818  0.7377 0.04987  6.232  9.901 28.491 24.155  0.0000  0.0000  0.0000
 1990 352    50    46    566 11.6518  0.0000  7.0500  2.0867  0.8531 0.67924  6.873 12.301 24.496 21.522  0.0000  0.0000  0.0000
 1990 353    51    47    639 13.5515  0.0623  6.8731  3.5062  0.8908 0.15212  6.559 12.131 24.111 20.098  0.0000  0.0000  0.0000
 1990 354    52    48    724 15.2190  0.0723  8.5814  3.5704  1.0615 0.23362  6.427 12.139 25.358 20.665  0.0000  0.0000  0.0000
 1990 355    53    49    808 15.0938  0.0940  8.5943  3.4728  1.3142 0.28304  6.348 12.226 27.952 22.972  0.0000  0.0000  0.0000
 1990 356    54    50    851  8.9581  0.1037  5.3560  1.8465  0.9141 0.20768  6.340 12.277 24.809 22.409  0.0000  0.0000  0.0000
 1990 357    55    51    935 15.1668  0.1151  8.2264  3.4716  1.3887 0.36990  6.299 12.485 26.991 23.193  0.0000  0.0000  0.0000
 1990 358    56    52   1001 12.0848  0.1033  7.3496  2.4797  0.9588 0.35972  6.348 12.722 23.216 20.028  0.0000  0.0000  0.0000
 1990 359    57    53   1119 20.2934  0.1062 11.2254  4.6497  1.3230 0.61963  6.402 13.168 23.971 19.313  0.0000  0.0000  0.0000
 1990 360    58    54   1248 23.2925  0.1567 12.6773  5.0853  2.1251 0.77643  6.490 13.637 29.171 23.438  0.0000  0.0000  0.0000
 1990 361    59    55   1385 24.7611  0.1955 13.5139  5.4136  2.5071 0.91679  6.610 14.122 29.703 24.866  0.0000  0.0000  0.0000
 1990 362    60    56   1497 20.2233  0.1344 11.1450  4.8235  1.1808 0.81754  6.728 14.545 19.974 17.215  0.0000  0.0000  0.0000
 1990 363    61    57   1612 20.6556  0.1389 11.3346  4.9209  1.1992 0.87959  6.848 14.957 21.448 16.467  0.0000  0.0000  0.0000
 1990 364    62    58   1768 27.2720  0.2022 15.3800  6.1175  1.9424 1.26994  7.009 15.485 25.093 19.431  0.0000  0.0000  0.0000
 1990 365    63    59   1931 29.1317  0.2781 16.5735  6.0819  2.5949 1.46534  7.213 16.014 27.452 22.220  0.0000  0.0000  0.0000
 1991 001    64    60   2081 26.8237  0.3490 15.0173  5.3796  3.0001 1.41344  7.343 16.408 29.664 24.467  0.0000  0.0000  0.0000
 1991 002    65    61   2234 27.7175  0.4085 15.5911  5.4278  3.1605 1.53724  7.480 16.796 28.010 24.821  0.0000  0.0000  0.0000
 1991 003    66    62   2417 30.1677  0.4128 18.3248  5.4773  3.1020 1.86838  7.663 17.289 27.535 23.341  0.0000  0.0000  0.0000
 1991 004    67    63   2610 33.3895  0.3994 18.7702  6.8330  2.9229 2.02909  7.840 17.793 26.564 21.116  0.0000  0.0000  0.0000
 1991 005    68    64   2806 34.2589  0.4455 19.2391  6.9531  3.0419 2.15564  8.013 18.272 26.269 21.108  0.0000  0.0000  0.0000
 1991 006    69    65   3024 35.0675  0.5021 21.3612  6.2680  3.3970 2.47372  8.209 18.784 27.891 21.726  0.0000  0.0000  0.0000
 1991 007    70    66   3226 35.0170  0.6489 20.1542  5.7256  4.3546 2.53309  8.390 19.250 30.344 24.860  0.0000  0.0000  0.0000
 1991 008    71    67   3428 35.8737  0.0000 19.4734  5.4986  5.2088 2.75156  8.737 20.086 32.282 26.905  0.0000  0.0000  0.0000
 1991 009    72    68   3516 18.3628  0.7405 10.6785  3.2155  2.8281 1.05880  8.754 20.068 23.896 22.820  0.0000  0.0000  0.0000
 1991 010    73    69   3715 35.6504  0.3639 19.7720  5.7075  4.6985 2.67696  9.011 20.672 29.235 25.077  0.0000  0.0000  0.0000
 1991 011    74    70   3912 34.2985  0.0000 18.5442  5.6369  3.7436 3.05955  9.391 21.593 26.192 21.927  0.0000  0.0000  0.0000
 1991 012    75    71   4126 37.3106  0.7278 21.2212  7.1925  3.3987 2.66449  9.526 21.907 24.586 19.783  0.0000  0.0000  0.0000
 1991 013    76    72   4289 30.2095  0.7917 16.9977  5.7308  3.2319 1.99873  9.604 22.064 25.088 20.035  0.0000  0.0000  0.0000
 1991 014    77    73   4504 38.4038  0.8370 21.5868  6.6712  4.1078 2.80305  9.753 22.403 26.180 21.378  0.0000  0.0000  0.0000
 1991 015    78    74   4712 38.3282  1.0246 21.3588  6.9540  4.8834 2.63407  9.852 22.612 29.306 22.998  0.0000  0.0000  0.0000
 1991 016    79    75   4857 28.1257  0.7636 15.5360  5.7003  2.7010 1.48780  9.897 22.684 21.205 17.801  0.0000  0.0000  0.0000
 1991 017    80    76   5030 31.6217  0.6430 17.2219  6.3918  2.5716 2.18120 10.000 22.918 22.038 15.838  0.0000  0.0000  0.0000
 1991 018    81    77   5245 39.1593  0.9737 22.6030  7.1494  3.9319 2.83826 10.134 23.188 25.415 19.431  0.0000  0.0000  0.0000
 1991 019    82    78   5436 37.5851  1.1429 20.8154  6.9538  4.4389 2.68318 10.238 23.384 27.160 20.781  6.1843 19.8790 32.9689
 1991 020    83    79   5586 33.5392  1.2702 18.0557  6.1924  4.8345 1.97421 10.284 23.428 29.370 21.989  6.2118 20.1577 32.5183
 1991 021    84    80   5631 21.0720  0.5736 11.3045  4.0237  3.6742 0.19583 10.315 23.383 23.357 21.422  6.2057 20.1385 32.5755
 1991 022    85    81   5786 39.1627  1.4567 20.4004  7.6847  5.1206 2.27510 10.356 23.443 27.051 22.250  6.2225 20.2476 32.3619
 1991 023    86    82   5908 35.7782  1.5943 18.1991  7.0887  5.3050 1.46059 10.346 23.341 27.499 23.092  6.2549 20.3529 32.0538
 1991 024    87    83   5942 17.7355  0.5812  9.5755  2.9480  3.6415 0.26057 10.387 23.317 23.207 21.416  6.2338 20.2623 32.2766
 1991 025    88    84   6078 36.7232  1.5697 18.8009  8.2586  4.8293 0.89143 10.344 23.128 25.224 21.678  6.2265 20.2444 32.3399
 1991 026    89    85   6237 37.3818  1.4785 20.7387  7.7345  4.4218 1.41481 10.352 23.071 24.659 20.182  6.2137 20.0753 32.5888
 1991 027    90    86   6371 36.7476  1.4338 18.9038  8.2413  4.0716 1.33549 10.360 23.016 23.699 19.079  6.2077 19.8174 32.8846
 1991 028    91    87   6497 37.6834  1.6744 19.3916  8.1223  5.0665 1.30250 10.342 22.899 26.686 21.279  6.2054 19.8722 32.8441
 1991 029    92    88   6548 24.1950  1.6632 13.6490  5.2815  4.0480 0.00248 10.230 22.528 23.923 20.664  6.2005 19.8626 32.8844
 1991 030    93    89   6608 31.2862  1.5693 16.3737  7.5691  3.9547 0.00000 10.125 22.175 21.857 19.458  6.1964 19.7245 33.0480
 1991 031    94    90   6661 26.0363  1.6393 14.0480  5.9857  3.9949 0.00000 10.013 21.801 22.641 20.206  6.1926 19.7005 33.0960
 1991 032    95    91   6733 37.0146  1.7391 18.6904  8.7514  5.1309 0.17850  9.904 21.439 25.975 21.357  6.1938 19.7729 33.0159
 1991 033    96    92   6817 35.6870  1.7768 18.1276  8.4043  5.5234 0.07133  9.781 21.039 27.916 22.153  6.2007 19.8700 32.8759
 1991 034    97    93   6888 35.1327  1.9380 17.2831  8.0866  6.6717 0.00000  9.635 20.578 30.166 24.797  6.2399 19.9731 32.5278
 1991 035    98    94   6957 35.8879  1.9297 17.5344  8.4289  6.6596 0.00000  9.488 20.115 29.617 24.642  6.2689 20.0553 32.2638
 1991 036    99    95   7046 35.5283  1.9293 17.4367  8.4615  6.5025 0.00000  9.339 19.645 28.412 24.440  6.2903 20.1234 32.0622
 1991 037   100    96   7088 29.6187  1.8574 15.1335  7.0871  5.6183 0.00000  9.197 19.189 26.651 23.288  6.2929 20.1760 31.9935
 1991 038   101    97   7178 34.8116  1.7646 17.1442  8.6305  5.7474 0.00000  9.062 18.749 27.371 22.577  6.2879 20.2094 31.9911
 1991 039   102    98   7238 30.2743  1.8128 15.2936  7.2751  5.8957 0.00000  8.921 18.291 27.853 23.525  6.2932 20.2476 31.9200
 1991 040   103    99   7284 27.4684  1.8185 13.8368  6.6973  5.9414 0.00000  8.777 17.824 27.992 24.023  6.3032 20.2798 31.8255
 1991 041   104   100   7364 32.9489  1.7174 16.1200  8.2020  6.2331 0.00000  8.643 17.375 29.190 23.504  6.3058 20.3054 31.7830
 1991 042   105   101   7398 29.2441  1.8096 14.4283  7.1714  6.5291 0.00000  8.496 16.894 28.401 24.969  6.3228 20.3276 31.6547
 1991 043   106   102   7482 31.1190  1.5338 15.7668  8.3840  4.8919 0.00000  8.375 16.477 24.240 20.916  6.3071 20.2821 31.7987
 1991 044   107   103   7554 25.4444  1.2832 13.7900  7.3008  3.4316 0.00000  8.277 16.124 22.202 17.092  6.3043 19.9959 32.1021
 1991 045   108   104   7624 22.3290  0.8656 12.3311  6.7302  2.8086 0.09854  8.250 15.930 19.425 15.602  6.3383 19.5758 32.3101
 1991 046   109   105   7695 23.4344  1.1806 12.9300  6.9691  3.0033 0.00000  8.158 15.595 21.197 15.623  6.3437 19.2629 32.5889
 1991 047   110   106   7788 27.7828  1.2474 14.4901  7.9105  3.8345 0.00000  8.055 15.234 24.393 17.141  6.3384 19.1123 32.7727
 1991 048   111   107   7849 29.4194  1.1437 14.3709  7.7241  5.6961 0.09372  7.986 14.940 28.676 21.890  6.3481 19.1622 32.6622
 1991 049   112   108   7918 26.6397  1.1756 13.0695  6.8081  5.5673 0.08855  7.906 14.626 27.382 22.312  6.3577 19.2066 32.5576
 1991 050   113   109   7994 27.0489  1.0853 13.1117  7.0847  5.3834 0.09035  7.828 14.332 28.071 21.324  6.3638 19.2283 32.4980
 1991 051   114   110   8045 22.1724  1.3688 10.6869  5.1980  6.2513 0.03482  7.691 13.915 29.902 24.442  6.3717 19.2770 32.3996
 1991 052   115   111   8048 12.0059  1.4417  6.5687  1.9911  4.9844 0.00000  7.523 13.448 26.714 23.431  6.3703 19.3117 32.3741
 1991 053   116   112   8113 22.9142  1.1693 11.1870  5.7768  4.9692 0.04568  7.396 13.084 26.568 21.538  6.3697 19.3365 32.3527
 1991 054   117   113   8184 21.8188  0.8335 10.8786  6.2350  3.5025 0.09214  7.322 12.848 22.521 17.635  6.3780 19.2409 32.3969
 1991 055   118   114   8255 24.1743  1.0027 11.2312  6.4147  5.0433 0.08139  7.214 12.545 27.317 21.505  6.3821 19.2559 32.3559
 1991 056   119   115   8317 23.3237  1.0574 10.2758  5.8670  6.0066 0.06946  7.086 12.212 31.036 23.657  6.3900 19.2829 32.2795
 1991 057   120   116   8368 21.9974  1.0569  9.0938  5.1888  6.8548 0.07866  6.952 11.877 32.924 26.010  6.4029 19.3059 32.1761
 1991 058   121   117   8387 15.2595  1.2847  6.2927  2.9429  6.6766 0.01865  6.755 11.424 32.260 27.307  6.4109 19.3268 32.1048
 1991 059   122   118   8392 10.7307  1.2102  5.1528  2.0647  4.4307 0.00000  6.557 10.982 24.351 22.855  6.4086 19.3465 32.0999
 1991 060   123   119   8408 12.8318  1.1961  5.7504  2.6811  4.9809 0.00375  6.354 10.539 26.790 24.013  6.4083 19.3676 32.0804
 1991 061   124   120   8425 11.5527  1.0892  5.1966  2.4136  4.4262 0.01100  6.163 10.133 25.967 22.692  6.4072 19.3829 32.0719
 1991 062   125   121   8468 17.2569  1.0799  7.6460  2.8598  5.6421 0.00660  5.965  9.722 30.506 24.598  6.3431 19.5433 32.3126
 1991 063   126   122   8231 14.0623  1.0142  6.5002  2.5304  4.3885 0.00000  5.702  8.807 25.953 22.217  6.2965 19.6512 32.4957
 1991 064   127   123   8058 13.0502  0.0000  5.6333  1.9769  3.6157 0.27886  5.770  8.544 25.628 20.044  6.2459 19.7490 32.7142
 1991 065   128   124   7908 10.3723  0.7605  4.4579  1.8069  3.8316 0.00000  5.514  7.836 26.377 21.826  6.2214 19.8056 32.8110
 1991 066   129   125   7772  7.7421  0.6564  2.7642  1.2658  4.0870 0.00000  5.265  7.217 30.042 22.969  6.2219 19.8110 32.8022
 1991 067   130   126   7650  5.9642  0.6182  1.1682  0.3351  5.1417 0.00188  5.002  6.651 33.067 27.418  6.2235 19.8134 32.7898
 1991 068   131   127   7546  2.5815  0.5210  0.0000  0.0000  3.3774 0.00000  4.750  6.167 25.089 23.064  6.2235 19.8134 32.7898
 1991 069   132   128   7453  1.9635  0.4601  0.0000  0.0000  3.1723 0.00000  4.513  5.743 24.669 22.610  6.2235 19.8134 32.7898
 1991 070   133   129   7378  2.5647  0.4180  0.0000  0.0000  3.2321 0.00000  4.285  5.365 25.695 22.820  6.2235 19.8134 32.7898
 1991 071   134   130   7319  2.3777  0.3865  0.0000  0.0000  3.4190 0.00000  4.066  5.024 27.656 23.611  6.2235 19.8134 32.7898
 1991 072   135   131   7271  1.7273  0.3334  0.0000  0.0000  2.7918 0.00000  3.869  4.730 25.721 21.181  6.2235 19.8134 32.7898
 1991 073   136   132   7230  1.4987  0.3153  0.0000  0.0000  2.9048 0.00000  3.678  4.461 25.823 21.958  6.2235 19.8134 32.7898
 1991 074   137   133   7196  1.3262  0.2762  0.0000  0.0000  2.4896 0.00000  3.506  4.227 25.228 19.876  6.2235 19.8134 32.7898

*DSSAT Cropping System Model Ver. 4.6.1.000 -release      NOV 01, 2016; 12:10:37
                                                                                
*RUN   2        : UYSB                      CRGRO046 UYSB1026    1              
 MODEL          : CRGRO046 - Soybean                                            
 EXPERIMENT     : UYSB1026 SN late to create DSS                                
 DATA PATH      :                                                               
 TREATMENT  1   : UYSB                      CRGRO046                            
  
@YEAR DOY   DAS   DAP   TWAD    PHAD    CMAD    CGRD    GRAD    MRAD    CHAD   CL%D   CS%D   TGNN   TGAV    GN%D    GL%D    GC%D
 1991 306     4     0      0  0.0000  0.0000  0.0000  0.0000  0.0000 0.00000  0.000  0.000 20.842 17.229  0.0000  0.0000  0.0000
 1991 307     5     1      0  0.0000  0.0000  0.0000  0.0000  0.0000 0.00000  0.000  0.000 21.361 17.783  0.0000  0.0000  0.0000
 1991 308     6     2      0  0.0000  0.0000  0.0000  0.0000  0.0000 0.00000  0.000  0.000 23.120 18.433  0.0000  0.0000  0.0000
 1991 309     7     3      0  0.0000  0.0000  0.0000  0.0000  0.0000 0.00000  0.000  0.000 24.083 19.538  0.0000  0.0000  0.0000
 1991 310     8     4      0  0.0000  0.0000  0.0000  0.0000  0.0000 0.00000  0.000  0.000 23.144 20.246  0.0000  0.0000  0.0000
 1991 311     9     5      0  0.0000  0.0000  0.0000  0.0000  0.0000 0.00000  0.000  0.000 21.505 18.248  0.0000  0.0000  0.0000
 1991 312    10     6      0  0.0000  0.0000  0.0000  0.0000  0.0000 0.00000  0.000  0.000 20.123 16.902  0.0000  0.0000  0.0000
 1991 313    11     7      8  0.0000  0.0004  0.0002  0.0001  0.0000 0.00000  3.958  7.913 21.820 16.558  0.0000  0.0000  0.0000
 1991 314    12     8      8  0.1361  0.0004  0.0860  0.0289  0.0087 0.00000  3.915  7.831 23.668 18.513  0.0000  0.0000  0.0000
 1991 315    13     9      9  0.1049  0.0003  0.0663  0.0240  0.0050 0.00000  3.891  7.781 17.748 14.561  0.0000  0.0000  0.0000
 1991 316    14    10     10  0.1226  0.0003  0.0789  0.0277  0.0048 0.00000  3.875  7.754 17.232 12.720  0.0000  0.0000  0.0000
 1991 317    15    11     11  0.1280  0.0004  0.0823  0.0281  0.0063 0.00000  3.851  7.714 19.236 14.724  0.0000  0.0000  0.0000
 1991 318    16    12     11  0.0811  0.0005  0.0507  0.0180  0.0056 0.00000  3.820  7.653 18.811 16.017  0.0000  0.0000  0.0000
 1991 319    17    13     12  0.1330  0.0006  0.0850  0.0277  0.0091 0.00000  3.784  7.596 21.058 18.121  0.0000  0.0000  0.0000
 1991 320    18    14     13  0.1998  0.0006  0.1295  0.0419  0.0118 0.00000  3.754  7.568 21.658 17.682  0.0000  0.0000  0.0000
 1991 321    19    15     14  0.2198  0.0006  0.1430  0.0460  0.0125 0.00000  3.728  7.546 21.378 17.187  0.0000  0.0000  0.0000
 1991 322    20    16     16  0.2958  0.0009  0.1910  0.0598  0.0208 0.00000  3.693  7.520 25.105 20.197  0.0000  0.0000  0.0000
 1991 323    21    17     18  0.2878  0.0008  0.1883  0.0593  0.0162 0.00000  3.670  7.505 20.265 17.578  0.0000  0.0000  0.0000
 1991 324    22    18     20  0.3184  0.0010  0.2078  0.0640  0.0205 0.00000  3.642  7.484 22.830 18.746  0.0000  0.0000  0.0000
 1991 325    23    19     22  0.3961  0.0013  0.2417  0.0925  0.0296 0.00000  3.645  7.433 26.388 20.619  0.0000  0.0000  0.0000
 1991 326    24    20     25  0.4594  0.0016  0.2722  0.1072  0.0437 0.00000  3.645  7.373 30.627 23.639  0.0000  0.0000  0.0000
 1991 327    25    21     28  0.5158  0.0020  0.3021  0.1137  0.0603 0.00000  3.626  7.317 32.915 26.931  0.0000  0.0000  0.0000
 1991 328    26    22     29  0.2192  0.0012  0.1341  0.0521  0.0156 0.00000  3.611  7.275 18.376 16.477  0.0000  0.0000  0.0000
 1991 329    27    23     30  0.2356  0.0012  0.1450  0.0552  0.0165 0.00000  3.597  7.241 18.173 16.524  0.0000  0.0000  0.0000
 1991 330    28    24     33  0.3753  0.0013  0.2337  0.0871  0.0217 0.00000  3.594  7.235 19.166 16.442  0.0000  0.0000  0.0000
 1991 331    29    25     37  0.6453  0.0015  0.4171  0.1411  0.0364 0.00000  3.629  7.264 22.367 17.528  0.0000  0.0000  0.0000
 1991 332    30    26     42  0.8221  0.0025  0.5013  0.1792  0.0654 0.00000  3.617  7.282 27.088 22.035  0.0000  0.0000  0.0000
 1991 333    31    27     46  0.7720  0.0029  0.4829  0.1605  0.0644 0.00000  3.598  7.284 24.707 22.341  0.0000  0.0000  0.0000
 1991 334    32    28     54  1.2264  0.0033  0.7623  0.2534  0.0981 0.00000  3.585  7.329 26.754 22.919  0.0000  0.0000  0.0000
 1991 335    33    29     61  1.2470  0.0035  0.7721  0.2664  0.0920 0.00000  3.585  7.344 26.019 21.287  0.0000  0.0000  0.0000
 1991 336    34    30     70  1.5542  0.0043  0.9513  0.3313  0.1255 0.00000  3.589  7.354 28.052 22.604  0.0000  0.0000  0.0000
 1991 337    35    31     78  1.2468  0.0052  0.7644  0.2571  0.1106 0.00000  3.566  7.328 26.222 22.816  0.0000  0.0000  0.0000
 1991 338    36    32     90  2.0274  0.0059  1.2460  0.4208  0.1793 0.00000  3.559  7.351 29.430 23.910  0.0000  0.0000  0.0000
 1991 339    37    33     99  1.5193  0.0068  0.9334  0.3220  0.1372 0.00000  3.535  7.322 26.092 22.866  0.0000  0.0000  0.0000
 1991 340    38    34    113  2.5099  0.0083  1.5176  0.5278  0.2462 0.00000  3.531  7.324 30.071 25.446  0.0000  0.0000  0.0000
 1991 341    39    35    126  2.1050  0.0090  1.2932  0.4323  0.1929 0.00000  3.510  7.305 26.621 23.467  0.0000  0.0000  0.0000
 1991 342    40    36    145  3.1032  0.0101  1.9177  0.6297  0.2728 0.00000  3.500  7.323 28.181 23.844  0.0000  0.0000  0.0000
 1991 343    41    37    152  1.5812  0.0099  0.9439  0.3645  0.1425 0.00000  3.492  7.260 22.279 20.881  0.0000  0.0000  0.0000
 1991 344    42    38    174  3.6436  0.0119  2.3612  0.6963  0.2977 0.00000  3.555  7.250 25.905 22.966  0.0000  0.0000  0.0000
 1991 345    43    39    194  3.7807  0.0133  1.9289  0.9602  0.3092 0.00000  3.510  7.222 26.226 22.534  0.0000  0.0000  0.0000
 1991 346    44    40    208  2.5111  0.0126  1.4231  0.5928  0.2016 0.00000  3.491  7.181 22.840 20.260  0.0000  0.0000  0.0000
 1991 347    45    41    245  6.0426  0.0000  3.7676  1.1200  0.4414 0.18131  4.845  8.381 26.628 21.862  0.0000  0.0000  0.0000
 1991 348    46    42    260  2.9763  0.0178  1.8647  0.6448  0.2253 0.00000  4.747  8.243 21.207 19.344  0.0000  0.0000  0.0000
 1991 349    47    43    279  3.4141  0.0199  2.1404  0.7304  0.2701 0.00000  4.653  8.110 22.595 20.158  0.0000  0.0000  0.0000
 1991 350    48    44    322  6.9084  0.0000  4.1030  1.1757  0.5255 0.48549  6.994 10.136 25.596 22.085  0.0000  0.0000  0.0000
 1991 351    49    45    381  9.1656  0.0000  5.1668  1.4418  0.7198 1.00139  8.640 15.772 26.483 22.936  0.0000  0.0000  0.0000
 1991 352    50    46    437  9.9614  0.0657  5.4229  2.2787  0.9137 0.04145  7.869 14.633 29.331 24.566  0.0000  0.0000  0.0000
 1991 353    51    47    500 10.2753  0.0000  6.1615  1.7639  0.9643 0.46902  8.101 15.745 29.379 24.470  0.0000  0.0000  0.0000
 1991 354    52    48    583 13.2326  0.0000  7.7807  2.2319  1.2127 0.79721  8.548 17.446 29.272 24.614  0.0000  0.0000  0.0000
 1991 355    53    49    654 13.4486  0.1180  6.2469  3.2406  1.4292 0.15799  7.917 16.563 30.738 26.260  0.0000  0.0000  0.0000
 1991 356    54    50    682  9.1948  0.1170  2.3799  2.8295  0.9442 0.07500  7.592 16.129 26.196 23.760  0.0000  0.0000  0.0000
 1991 357    55    51    767 15.6890  0.0000  8.9211  2.4760  1.5008 1.42290  8.712 18.864 28.604 24.842  0.0000  0.0000  0.0000
 1991 358    56    52    865 17.7587  0.1673  9.0499  3.9973  1.8105 0.40307  8.259 18.152 29.444 25.789  0.0000  0.0000  0.0000
 1991 359    57    53    952 16.9416  0.1471  8.8466  3.8884  1.3144 0.44531  8.119 17.824 24.509 21.571  0.0000  0.0000  0.0000
 1991 360    58    54   1039 16.2555  0.1222  8.8775  3.8060  0.9858 0.48752  8.033 17.655 21.463 18.130  0.0000  0.0000  0.0000
 1991 361    59    55   1156 20.7150  0.1423 11.4763  4.7838  1.3094 0.68690  7.965 17.571 23.496 18.910  0.0000  0.0000  0.0000
 1991 362    60    56   1285 23.2171  0.1843 12.7392  5.2923  1.7120 0.83563  7.926 17.565 25.042 20.849  0.0000  0.0000  0.0000
 1991 363    61    57   1422 25.2458  0.2214 13.6559  5.7954  2.1004 0.99317  7.920 17.638 27.341 22.073  0.0000  0.0000  0.0000
 1991 364    62    58   1544 23.4095  0.2752 12.4015  5.3093  2.3632 0.98680  7.923 17.716 28.667 24.008  0.0000  0.0000  0.0000
 1991 365    63    59   1654 22.0341  0.3409 11.3385  4.8031  2.9003 0.96171  7.925 17.773 31.412 27.147  0.0000  0.0000  0.0000
 1992 001    64    60   1724 15.3663  0.3392  7.5984  3.5358  1.9580 0.65446  7.909 17.752 26.972 24.212  0.0000  0.0000  0.0000
 1992 002    65    61   1846 23.2038  0.3466 12.8646  4.8325  2.4734 1.20052  8.013 17.992 27.330 23.925  0.0000  0.0000  0.0000
 1992 003    66    62   1998 25.8553  0.2635 15.0163  5.3802  1.7820 1.44574  8.160 18.374 21.996 18.770  0.0000  0.0000  0.0000
 1992 004    67    63   2191 31.6221  0.3457 18.9596  6.0297  2.5437 1.91691  8.339 18.844 25.206 20.941  0.0000  0.0000  0.0000
 1992 005    68    64   2390 32.1778  0.0000 18.3744  5.3782  2.7636 2.81043  8.833 20.130 26.782 21.118  0.0000  0.0000  0.0000
 1992 006    69    65   2554 27.0596  0.4724 16.4835  4.9288  2.6011 1.76805  8.933 20.365 25.656 21.534  0.0000  0.0000  0.0000
 1992 007    70    66   2739 30.9461  0.0000 16.9125  4.8745  3.2353 3.18119  9.469 21.731 27.759 22.848  0.0000  0.0000  0.0000
 1992 008    71    67   2931 32.9914  0.0000 17.3539  4.9454  4.1772 3.64479 10.060 23.205 29.533 25.626  0.0000  0.0000  0.0000
 1992 009    72    68   3101 30.8489  0.6203 17.3685  5.0779  4.1300 2.11113 10.163 23.395 29.518 25.575  0.0000  0.0000  0.0000
 1992 010    73    69   3258 29.3699  0.8775 16.8016  5.2046  4.0865 1.85252 10.187 23.392 28.772 25.510  0.0000  0.0000  0.0000
 1992 011    74    70   3476 36.1516  0.0000 18.2285  5.6210  3.3769 5.22980 10.979 25.413 25.365 21.028  0.0000  0.0000  0.0000
 1992 012    75    71   3662 33.8911  0.8238 18.8897  6.5885  3.4369 2.25388 11.017 25.448 26.337 21.140  0.0000  0.0000  0.0000
 1992 013    76    72   3871 36.7492  0.9134 21.1301  6.8729  3.8491 2.49039 11.068 25.510 26.319 21.875  0.0000  0.0000  0.0000
 1992 014    77    73   4040 31.8691  0.9601 17.7754  6.0858  3.6651 1.97851 11.092 25.503 26.302 21.822  0.0000  0.0000  0.0000
 1992 015    78    74   4179 25.3819  0.5623 14.1146  5.2925  1.8695 1.44837 11.127 25.553 18.867 15.355  0.0000  0.0000  0.0000
 1992 016    79    75   4344 29.4240  0.6408 16.5037  5.8598  2.3045 1.94518 11.187 25.662 21.424 16.227  0.0000  0.0000  0.0000
 1992 017    80    76   4559 37.2206  0.0000 18.9708  6.1127  3.6651 4.39251 11.696 26.892 25.411 19.928  0.0000  0.0000  0.0000
 1992 018    81    77   4752 36.8916  1.1490 19.9374  7.0133  4.4334 2.53308 11.736 26.921 27.988 21.932  0.0000  0.0000  0.0000
 1992 019    82    78   4893 32.4353  1.3662 17.6593  5.9282  4.8126 1.97205 11.741 26.840 29.116 23.669  0.0000  0.0000  0.0000
 1992 020    83    79   5051 37.0305  1.5408 19.8562  6.6816  5.9988 2.25427 11.748 26.769 31.198 25.716  6.5213 20.5000 30.2420
 1992 021    84    80   5181 34.4139  1.6239 17.8751  6.7640  5.4963 1.68837 11.712 26.603 28.885 24.944  6.4735 20.5000 30.5404
 1992 022    85    81   5283 35.3937  1.6055 17.9940  7.3422  5.2773 1.34767 11.672 26.414 28.317 23.946  6.4156 20.5000 30.9026
 1992 023    86    82   5425 35.3799  1.5031 17.9662  7.7764  4.5848 1.19908 11.639 26.238 26.313 21.942  6.3219 20.3930 31.5953
 1992 024    87    83   5528 29.2725  1.5931 15.5477  6.3921  4.4351 0.34755 11.543 25.904 26.289 22.384  6.2955 20.3882 31.7647
 1992 025    88    84   5591 25.3739  1.8013 13.5935  5.3437  4.9316 0.00000 11.401 25.452 27.230 24.472  6.3280 20.4195 31.5306
 1992 026    89    85   5681 32.5385  1.8262 16.3502  7.2115  5.6232 0.31944 11.280 25.054 27.988 24.872  6.3583 20.4401 31.3203
 1992 027    90    86   5731 30.8868  1.7761 16.0530  6.8615  5.2161 0.03817 11.141 24.611 27.229 23.970  6.3604 20.4544 31.2932
 1992 028    91    87   5772 27.4192  1.8648 13.9191  5.9766  5.5923 0.00000 10.987 24.128 28.726 25.467  6.3949 20.4657 31.0663
 1992 029    92    88   5819 26.0477  1.8629 13.0603  5.7644  5.4783 0.00000 10.832 23.640 28.205 25.412  6.4182 20.4738 30.9122
 1992 030    93    89   5819 17.6224  1.8609  9.2484  3.6719  4.9128 0.00000 10.678 23.146 28.001 25.459  6.4351 20.4793 30.8012
 1992 031    94    90   5845 26.7542  1.8747 12.7788  6.0145  6.0352 0.00000 10.524 22.641 29.744 26.558  6.4645 20.4831 30.6136
 1992 032    95    91   5902 27.6328  1.8122 13.4946  6.1817  5.9120 0.00000 10.375 22.144 29.585 26.005  6.4793 20.4861 30.5182
 1992 033    96    92   5978 30.8110  1.8567 14.9482  6.7582  6.5187 0.00000 10.219 21.628 29.679 26.851  6.5028 20.4884 30.3691
 1992 034    97    93   5997 22.5876  1.7154 11.6151  5.1443  4.9249 0.00000 10.078 21.147 26.446 24.299  6.4859 20.4902 30.4730
 1992 035    98    94   6060 28.0218  1.6660 13.8754  6.7375  5.2048 0.00000  9.942 20.672 26.930 23.995  6.4666 20.4918 30.5918
 1992 036    99    95   6130 29.5271  1.7009 14.5473  7.3005  5.7618 0.00000  9.800 20.177 28.012 25.042  6.4659 20.4931 30.5952
 1992 037   100    96   6202 29.8557  1.6527 14.6043  7.6364  5.7216 0.00000  9.662 19.689 28.137 24.738  6.4613 20.4941 30.6226
 1992 038   101    97   6267 30.1744  1.6610 14.3451  7.7075  6.3041 0.00000  9.521 19.189 29.817 25.881  6.4714 20.4949 30.5591
 1992 039   102    98   6335 28.5888  1.6564 13.3859  7.4013  6.7591 0.00000  9.376 18.679 31.424 27.024  6.4929 20.4956 30.4237
 1992 040   103    99   6362 18.0931  1.5278  9.6627  4.1965  4.9868 0.00982  9.248 18.205 27.740 24.629  6.4903 20.4891 30.4463
 1992 041   104   100   6364 14.2152  1.4224  8.2459  3.0714  4.0335 0.00000  9.127 17.750 24.728 22.583  6.4743 20.4839 30.5517
 1992 042   105   101   6397 18.7769  1.3070 10.0640  4.5882  4.3073 0.02566  9.023 17.335 25.080 22.577  6.4649 20.4631 30.6314
 1992 043   106   102   6482 27.9472  1.0764 13.5579  7.4472  5.0576 0.09630  8.967 17.027 25.930 23.071  6.4736 20.4123 30.6274
 1992 044   107   103   6516 17.2995  1.4062  8.9973  3.6373  5.0564 0.01051  8.829 16.548 27.965 24.713  6.4738 20.4121 30.6266
 1992 045   108   104   6533 12.4732  1.2838  7.1475  2.4796  3.7972 0.00112  8.695 16.096 23.608 21.929  6.4628 20.4055 30.7022
 1992 046   109   105   6600 24.8729  1.1878 11.7025  6.3867  5.7393 0.05929  8.586 15.701 28.609 25.000  6.4754 20.3852 30.6433
 1992 047   110   106   6670 25.6966  1.0724 11.6514  6.6399  5.9524 0.08865  8.495 15.356 29.270 25.341  6.4944 20.3550 30.5548
 1992 048   111   107   6740 25.3401  1.0735 11.5580  6.6750  5.6907 0.07855  8.390 14.996 28.569 24.891  6.5068 20.3323 30.4999
 1992 049   112   108   6807 25.0074  1.0411 10.9376  6.4603  6.2086 0.08798  8.283 14.646 30.636 26.172  6.5258 20.3082 30.4054
 1992 050   113   109   6864 23.8166  1.0787  9.9655  5.9159  6.8559 0.08580  8.158 14.271 31.829 28.080  6.5503 20.2862 30.2747
 1992 051   114   110   6918 23.3399  1.0507  9.5300  5.7628  6.9517 0.08792  8.027 13.900 32.293 28.474  6.5740 20.2651 30.1472
 1992 052   115   111   6959 16.2414  0.9954  7.6302  4.1490  3.9784 0.04290  7.880 13.518 26.596 21.850  6.5693 20.2505 30.1915
 1992 053   116   112   6958  6.7221  0.9317  3.9914  1.6155  2.0853 0.00000  7.720 13.132 18.304 16.663  6.5649 20.1924 30.2769
 1992 054   117   113   7005 17.4507  0.8902  7.9531  4.6330  3.8807 0.05950  7.583 12.791 24.864 21.726  6.5626 20.1745 30.3094
 1992 055   118   114   7067 19.8567  0.9009  9.0777  5.2913  3.8664 0.04507  7.429 12.432 24.862 21.260  6.5561 20.1570 30.3674
 1992 056   119   115   7126 18.6738  0.7720  8.5125  5.0801  3.3947 0.06513  7.302 12.134 23.749 19.899  6.5531 20.1144 30.4288
 1992 057   120   116   7176 17.5351  0.8666  7.7461  4.7845  3.9138 0.04542  7.140 11.778 26.914 21.604  6.5495 20.1034 30.4624
 1992 058   121   117   7218 14.5551  0.7461  6.5900  4.0641  3.0380 0.05666  7.002 11.478 23.498 19.330  6.5484 20.0634 30.5092
 1992 059   122   118   7258 12.2164  0.6740  5.9128  3.6877  2.1288 0.04269  6.869 11.199 20.460 15.758  6.5508 19.9623 30.5952
 1992 060   123   119   7302 14.3300  0.7257  6.5641  4.1457  2.7601 0.04336  6.720 10.893 23.075 18.196  6.5488 19.9118 30.6582
 1992 061   124   120   7353 13.9315  0.0000  5.8707  2.2236  3.2354 0.73737  6.896 11.315 24.929 20.195  6.4834 20.0253 30.9537
 1992 062   125   121   7172 13.2489  0.3221  5.8386  2.2488  3.5125 0.19576  6.850 10.792 25.656 21.456  6.4245 20.1376 31.2093
 1992 063   126   122   7003  8.0431  0.8491  3.3875  1.7523  3.1974 0.00000  6.548  9.939 25.500 21.871  6.4206 20.1424 31.2291
 1992 064   127   123   6851  4.8159  0.7506  1.7054  0.6394  3.1600 0.00000  6.245  9.176 25.840 22.995  6.4198 20.1442 31.2320
 1992 065   128   124   6738  5.9929  0.6479  2.1447  1.0450  3.1357 0.00000  5.955  8.505 26.624 22.856  6.4188 20.1464 31.2361
 1992 066   129   125   6642  4.4118  0.5711  1.3834  0.5293  2.9698 0.00000  5.675  7.910 25.762 22.990  6.4182 20.1478 31.2384
 1992 067   130   126   6561  3.4971  0.5083  0.7202  0.2066  3.1047 0.00000  5.402  7.381 28.890 23.738  6.4180 20.1486 31.2387
 1992 068   131   127   6490  2.0500  0.4689  0.0000  0.0000  3.0967 0.00000  5.123  6.900 28.457 24.585  6.4180 20.1486 31.2387
 1992 069   132   128   6432  1.4904  0.4292  0.0000  0.0000  3.0315 0.00000  4.854  6.465 27.752 24.769  6.4180 20.1486 31.2387
 1992 070   133   129   6368  0.8460  0.3751  0.0000  0.0000  2.5582 0.00000  4.609  6.084 24.304 22.990  6.4180 20.1486 31.2387
 1992 071   134   130   6316  0.9396  0.3574  0.0000  0.0000  2.8052 0.00000  4.368  5.730 26.429 24.300  6.4180 20.1486 31.2387
 1992 072   135   131   6272  0.9123  0.3394  0.0000  0.0000  3.0953 0.00000  4.133  5.399 28.668 25.760  6.4180 20.1486 31.2387
 1992 073   136   132   6243  0.6347  0.3120  0.0000  0.0000  2.8825 0.00000  3.911  5.098 27.340 25.036  6.4180 20.1486 31.2387

*DSSAT Cropping System Model Ver. 4.6.1.000 -release      NOV 01, 2016; 12:10:37
                                                                                
*RUN   3        : UYSB                      CRGRO046 UYSB1026    1              
 MODEL          : CRGRO046 - Soybean                                            
 EXPERIMENT     : UYSB1026 SN late to create DSS                                
 DATA PATH      :                                                               
 TREATMENT  1   : UYSB                      CRGRO046                            
  
@YEAR DOY   DAS   DAP   TWAD    PHAD    CMAD    CGRD    GRAD    MRAD    CHAD   CL%D   CS%D   TGNN   TGAV    GN%D    GL%D    GC%D
 1992 306     4     0      0  0.0000  0.0000  0.0000  0.0000  0.0000 0.00000  0.000  0.000 24.487 18.012  0.0000  0.0000  0.0000
 1992 307     5     1      0  0.0000  0.0000  0.0000  0.0000  0.0000 0.00000  0.000  0.000 27.724 21.571  0.0000  0.0000  0.0000
 1992 308     6     2      0  0.0000  0.0000  0.0000  0.0000  0.0000 0.00000  0.000  0.000 18.307 14.586  0.0000  0.0000  0.0000
 1992 309     7     3      0  0.0000  0.0000  0.0000  0.0000  0.0000 0.00000  0.000  0.000 13.012 10.293  0.0000  0.0000  0.0000
 1992 310     8     4      0  0.0000  0.0000  0.0000  0.0000  0.0000 0.00000  0.000  0.000 14.445  9.542  0.0000  0.0000  0.0000
 1992 311     9     5      0  0.0000  0.0000  0.0000  0.0000  0.0000 0.00000  0.000  0.000 17.151 11.997  0.0000  0.0000  0.0000
 1992 312    10     6      0  0.0000  0.0000  0.0000  0.0000  0.0000 0.00000  0.000  0.000 19.485 14.402  0.0000  0.0000  0.0000
 1992 313    11     7      8  0.0000  0.0004  0.0002  0.0001  0.0000 0.00000  3.957  7.911 22.809 16.759  0.0000  0.0000  0.0000
 1992 314    12     8      9  0.1862  0.0005  0.1170  0.0403  0.0128 0.00000  3.912  7.827 27.006 19.917  0.0000  0.0000  0.0000
 1992 315    13     9      9  0.0855  0.0005  0.0532  0.0184  0.0069 0.00000  3.867  7.737 21.156 19.007  0.0000  0.0000  0.0000
 1992 316    14    10     10  0.2109  0.0007  0.1328  0.0437  0.0168 0.00000  3.818  7.665 26.674 22.269  0.0000  0.0000  0.0000
 1992 317    15    11     12  0.2566  0.0008  0.1623  0.0526  0.0205 0.00000  3.774  7.610 27.512 22.427  0.0000  0.0000  0.0000
 1992 318    16    12     14  0.2866  0.0008  0.1843  0.0590  0.0199 0.00000  3.740  7.579 25.806 20.433  0.0000  0.0000  0.0000
 1992 319    17    13     15  0.2549  0.0010  0.1602  0.0511  0.0234 0.00000  3.696  7.520 29.032 22.943  0.0000  0.0000  0.0000
 1992 320    18    14     17  0.3052  0.0010  0.2064  0.0563  0.0233 0.00000  3.678  7.488 24.361 21.423  0.0000  0.0000  0.0000
 1992 321    19    15     19  0.2658  0.0007  0.1681  0.0568  0.0136 0.00000  3.657  7.477 19.166 15.978  0.0000  0.0000  0.0000
 1992 322    20    16     21  0.2658  0.0007  0.1743  0.0537  0.0128 0.00000  3.644  7.474 19.592 14.648  0.0000  0.0000  0.0000
 1992 323    21    17     23  0.3166  0.0008  0.2083  0.0621  0.0168 0.00000  3.628  7.470 21.596 15.612  0.0000  0.0000  0.0000
 1992 324    22    18     25  0.4216  0.0013  0.2552  0.0965  0.0301 0.00000  3.643  7.417 25.773 19.718  0.0000  0.0000  0.0000
 1992 325    23    19     28  0.4341  0.0017  0.2618  0.0963  0.0377 0.00000  3.636  7.359 27.774 21.970  0.0000  0.0000  0.0000
 1992 326    24    20     29  0.2153  0.0013  0.1307  0.0492  0.0170 0.00000  3.619  7.304 20.158 17.435  0.0000  0.0000  0.0000
 1992 327    25    21     31  0.3945  0.0010  0.2476  0.0950  0.0185 0.00000  3.630  7.304 18.028 14.695  0.0000  0.0000  0.0000
 1992 328    26    22     34  0.3853  0.0009  0.2459  0.0890  0.0176 0.00000  3.633  7.315 18.661 13.572  0.0000  0.0000  0.0000
 1992 329    27    23     38  0.6458  0.0018  0.4105  0.1405  0.0409 0.00000  3.624  7.333 23.969 18.629  0.0000  0.0000  0.0000
 1992 330    28    24     42  0.6711  0.0022  0.4181  0.1516  0.0459 0.00000  3.617  7.324 22.744 19.697  0.0000  0.0000  0.0000
 1992 331    29    25     46  0.7379  0.0025  0.4588  0.1647  0.0537 0.00000  3.607  7.316 24.411 20.218  0.0000  0.0000  0.0000
 1992 332    30    26     52  1.0610  0.0028  0.6665  0.2338  0.0720 0.00000  3.605  7.342 25.261 20.136  0.0000  0.0000  0.0000
 1992 333    31    27     59  0.9952  0.0033  0.6234  0.2148  0.0748 0.00000  3.591  7.343 25.778 20.688  0.0000  0.0000  0.0000
 1992 334    32    28     65  1.0672  0.0044  0.6562  0.2256  0.0998 0.00000  3.566  7.321 28.057 23.433  0.0000  0.0000  0.0000
 1992 335    33    29     72  1.2620  0.0049  0.7923  0.2675  0.1136 0.00000  3.594  7.292 26.745 23.412  0.0000  0.0000  0.0000
 1992 336    34    30     82  1.5752  0.0040  0.9730  0.3513  0.0961 0.00000  3.593  7.324 22.566 19.017  0.0000  0.0000  0.0000
 1992 337    35    31     92  1.6546  0.0038  1.0513  0.3589  0.0898 0.00000  3.599  7.359 22.660 16.961  0.0000  0.0000  0.0000
 1992 338    36    32    104  1.9351  0.0051  1.2267  0.4058  0.1227 0.00000  3.595  7.382 25.021 18.677  0.0000  0.0000  0.0000
 1992 339    37    33    118  2.2636  0.0071  1.4169  0.4672  0.1745 0.00000  3.582  7.385 27.006 21.414  0.0000  0.0000  0.0000
 1992 340    38    34    129  1.9381  0.0081  1.1966  0.4184  0.1581 0.00000  3.568  7.355 26.269 21.108  0.0000  0.0000  0.0000
 1992 341    39    35    143  2.5413  0.0107  1.5951  0.5134  0.2454 0.00000  3.582  7.325 28.167 24.332  0.0000  0.0000  0.0000
 1992 342    40    36    159  2.7222  0.0098  1.6612  0.5811  0.2057 0.00000  3.560  7.324 24.928 20.986  0.0000  0.0000  0.0000
 1992 343    41    37    178  3.1005  0.0114  1.9366  0.6355  0.2443 0.00000  3.542  7.323 26.149 21.454  0.0000  0.0000  0.0000
 1992 344    42    38    196  3.0456  0.0130  1.8277  0.6882  0.2511 0.00000  3.553  7.278 25.338 21.682  0.0000  0.0000  0.0000
 1992 345    43    39    217  3.7190  0.0154  2.2251  0.8431  0.3214 0.00000  3.561  7.240 26.072 22.775  0.0000  0.0000  0.0000
 1992 346    44    40    243  4.4160  0.0153  2.6737  1.0379  0.3321 0.00000  3.575  7.226 25.060 21.190  0.0000  0.0000  0.0000
 1992 347    45    41    278  5.7524  0.0164  3.5048  1.3640  0.3975 0.00000  3.596  7.236 25.448 20.467  0.0000  0.0000  0.0000
 1992 348    46    42    317  6.7597  0.0214  4.0640  1.5783  0.5558 0.00000  3.606  7.233 28.162 22.680  0.0000  0.0000  0.0000
 1992 349    47    43    362  7.5876  0.0243  4.5837  1.7766  0.5938 0.00000  3.611  7.231 26.709 22.159  0.0000  0.0000  0.0000
 1992 350    48    44    415  8.7947  0.0224  5.3954  2.0877  0.5592 0.00000  3.626  7.254 25.605 19.155  0.0000  0.0000  0.0000
 1992 351    49    45    469  9.1265  0.0300  5.5250  2.1338  0.7039 0.00000  3.625  7.248 27.499 21.300  0.0000  0.0000  0.0000
 1992 352    50    46    521  8.9846  0.0382  5.3899  2.0779  0.7741 0.00413  3.616  7.237 26.283 22.736  0.0000  0.0000  0.0000
 1992 353    51    47    596 12.6798  0.0410  7.5911  2.9334  1.0396 0.04489  3.671  7.412 28.286 22.589  0.0000  0.0000  0.0000
 1992 354    52    48    659 10.9344  0.0483  6.4554  2.5004  0.9941 0.07194  3.730  7.611 28.646 22.842  0.0000  0.0000  0.0000
 1992 355    53    49    752 16.2629  0.0623  9.4831  3.6104  1.7010 0.15894  3.864  8.011 31.713 26.088  0.0000  0.0000  0.0000
 1992 356    54    50    847 16.3671  0.0686  9.6228  3.6421  1.5632 0.21410  4.010  8.443 30.180 24.197  0.0000  0.0000  0.0000
 1992 357    55    51    905 10.6662  0.0842  5.8650  2.4446  1.1879 0.16601  4.066  8.665 27.964 24.095  0.0000  0.0000  0.0000
 1992 358    56    52    967 11.4579  0.0942  6.3661  2.5784  1.2778 0.22101  4.153  8.957 26.782 24.310  0.0000  0.0000  0.0000
 1992 359    57    53   1090 21.4645  0.0972 12.2547  4.8766  1.8711 0.49995  4.406  9.675 27.410 23.397  0.0000  0.0000  0.0000
 1992 360    58    54   1209 20.9355  0.1032 11.9446  4.8141  1.6356 0.55410  4.635 10.318 25.763 21.356  0.0000  0.0000  0.0000
 1992 361    59    55   1359 25.8180  0.1135 14.7653  5.8638  1.8328 0.76366  4.906 11.069 25.510 20.422  0.0000  0.0000  0.0000
 1992 362    60    56   1518 27.1752  0.1362 15.8250  6.0768  1.9848 0.90344  5.177 11.788 25.949 20.431  0.0000  0.0000  0.0000
 1992 363    61    57   1677 28.1619  0.1788 16.2003  5.9894  2.5722 1.01615  5.437 12.440 29.481 22.709  0.0000  0.0000  0.0000
 1992 364    62    58   1747 13.8574  0.2199  6.8044  3.3021  1.6618 0.47193  5.457 12.577 24.813 22.699  0.0000  0.0000  0.0000
 1992 365    63    59   1814 14.3426  0.2132  7.2787  3.3602  1.5583 0.55813  5.540 12.795 22.806 21.480  0.0000  0.0000  0.0000
 1992 366    64    60   1868 12.7779  0.1978  7.5404  2.5140  1.2926 0.60509  5.680 13.069 20.066 19.708  0.0000  0.0000  0.0000
 1993 001    65    61   1932 13.7677  0.2200  7.9950  2.6268  1.4447 0.65686  5.792 13.336 20.986 20.413  0.0000  0.0000  0.0000
 1993 002    66    62   2001 14.3740  0.2361  8.3294  2.7014  1.5284 0.70170  5.908 13.611 21.479 20.619  0.0000  0.0000  0.0000
 1993 003    67    63   2071 14.8176  0.2535  8.5624  2.7610  1.6059 0.73571  6.025 13.884 21.606 20.817  0.0000  0.0000  0.0000
 1993 004    68    64   2198 22.8880  0.3355 13.6579  3.6914  2.7433 1.30881  6.246 14.436 27.681 24.419  0.0000  0.0000  0.0000
 1993 005    69    65   2363 30.8389  0.3960 16.5958  5.7333  3.8063 1.68714  6.486 15.071 29.553 26.219  0.0000  0.0000  0.0000
 1993 006    70    66   2554 35.3239  0.4303 17.8320  7.2649  4.2184 1.91397  6.678 15.699 30.349 25.940  0.0000  0.0000  0.0000
 1993 007    71    67   2658 21.6916  0.4548  9.4641  5.3473  2.7966 0.82016  6.645 15.766 26.273 23.799  0.0000  0.0000  0.0000
 1993 008    72    68   2822 30.1138  0.0000 14.3660  4.1570  3.2840 5.53843  7.935 19.087 25.725 23.395  0.0000  0.0000  0.0000
 1993 009    73    69   3048 37.2731  0.5196 22.2190  6.6805  3.3472 2.54084  8.185 19.624 25.431 21.524  0.0000  0.0000  0.0000
 1993 010    74    70   3265 37.9601  0.6359 21.7027  6.7666  4.1949 2.47875  8.392 20.056 29.062 23.650  0.0000  0.0000  0.0000
 1993 011    75    71   3480 38.6636  0.7365 21.6954  7.1499  4.7907 2.47835  8.573 20.426 30.227 24.994  0.0000  0.0000  0.0000
 1993 012    76    72   3688 38.8849  0.8440 21.2933  7.1147  5.3442 2.49864  8.736 20.750 30.927 26.232  0.0000  0.0000  0.0000
 1993 013    77    73   3859 33.8400  0.9326 18.2341  6.0916  5.3219 2.05226  8.841 20.930 31.332 26.924  0.0000  0.0000  0.0000
 1993 014    78    74   3999 29.1518  0.9959 15.8958  5.1025  4.7724 1.56980  8.904 20.996 29.041 26.245  0.0000  0.0000  0.0000
 1993 015    79    75   4189 37.2043  1.0420 20.6260  6.5370  5.6543 2.25465  9.025 21.212 29.671 26.696  0.0000  0.0000  0.0000
 1993 016    80    76   4333 29.4621  0.0000 14.3745  4.7284  4.6749 2.53649  9.430 22.156 27.614 25.285  0.0000  0.0000  0.0000
 1993 017    81    77   4510 34.6040  0.8051 19.2156  6.6410  3.3890 1.86366  9.532 22.339 22.385 19.984  0.0000  0.0000  0.0000
 1993 018    82    78   4678 33.2861  0.7765 18.9924  6.4617  3.0383 2.00044  9.662 22.568 23.008 18.313  6.2106 18.3507 34.3329
 1993 019    83    79   4864 37.1421  0.0000 19.4860  6.6782  4.0754 2.73122 10.035 23.404 25.006 21.100  6.1962 19.6135 33.1604
 1993 020    84    80   5045 39.3053  1.2612 20.9745  7.6621  5.1757 2.24576 10.123 23.527 28.245 23.408  6.2631 20.0984 32.2570
 1993 021    85    81   5217 39.4466  1.3618 21.0918  7.6362  5.6545 2.02288 10.184 23.583 29.693 24.212  6.3169 20.2710 31.7483
 1993 022    86    82   5378 39.3750  1.5082 20.8210  7.2834  6.7025 1.74520 10.217 23.571 31.351 26.550  6.4196 20.3556 31.0220
 1993 023    87    83   5499 36.4534  1.6980 17.4254  7.4854  7.2449 0.97201 10.160 23.333 32.630 28.044  6.5165 20.4011 30.3708
 1993 024    88    84   5618 38.1110  1.7661 18.0526  7.7377  7.7802 1.13270 10.113 23.123 33.095 28.689  6.5881 20.4275 29.8968
 1993 025    89    85   5661 27.3274  1.6413 14.4557  5.9938  5.0438 0.00000  9.984 22.695 26.683 24.319  6.5359 20.4474 30.2030
 1993 026    90    86   5751 34.7708  1.6459 16.9264  8.0820  6.0950 0.00000  9.851 22.261 29.845 25.332  6.5226 20.4619 30.2720
 1993 027    91    87   5776 18.0061  1.4752  9.7902  3.9578  3.8034 0.00000  9.739 21.873 23.844 22.160  6.4480 20.4285 30.7715
 1993 028    92    88   5903 36.7214  1.5794 19.5872  8.0961  6.0325 0.02128  9.624 21.460 28.198 24.868  6.4476 20.4444 30.7579
 1993 029    93    89   5998 33.3706  1.5695 16.6955  8.0011  5.2844 0.00000  9.504 21.040 26.781 23.415  6.4222 20.4545 30.9067
 1993 030    94    90   6119 37.6820  1.5837 19.3883  8.8488  5.8125 0.00000  9.382 20.612 27.824 23.814  6.4100 20.4625 30.9748
 1993 031    95    91   6163 22.8562  1.5389 11.9472  5.2674  4.5083 0.00000  9.265 20.196 24.551 22.904  6.3883 20.4618 31.1114
 1993 032    96    92   6238 33.0830  1.5972 16.0086  8.0183  5.6697 0.00000  9.142 19.756 27.384 24.055  6.3862 20.4676 31.1188
 1993 033    97    93   6297 34.5251  1.5673 17.1592  8.2799  5.6470 0.00000  9.021 19.320 26.852 23.702  6.3799 20.4723 31.1533
 1993 034    98    94   6388 32.7011  1.5069 16.1591  8.0379  5.3315 0.00000  8.903 18.893 26.534 23.098  6.3667 20.4731 31.2351
 1993 035    99    95   6500 35.2523  1.3924 17.6531  9.1597  4.9303 0.00000  8.797 18.495 25.917 21.443  6.3441 20.4263 31.4228
 1993 036   100    96   6591 34.8904  1.5264 16.8897  8.8198  6.1299 0.00000  8.675 18.052 28.640 24.239  6.3500 20.4357 31.3767
 1993 037   101    97   6668 31.0334  1.4973 15.1417  7.9422  5.9846 0.00000  8.552 17.610 29.219 24.282  6.3554 20.4435 31.3351
 1993 038   102    98   6704 18.5495  1.1833 10.4073  4.8041  3.5014 0.02127  8.472 17.270 22.050 19.689  6.3460 20.3234 31.5141
 1993 039   103    99   6712 11.4621  1.0956  7.5248  2.7366  2.5127 0.00000  8.394 16.940 18.893 17.140  6.3415 20.1323 31.7334
 1993 040   104   100   6764 19.2009  0.9863 10.9311  5.3142  2.9136 0.03567  8.340 16.658 20.128 17.482  6.3443 19.9005 31.9478
 1993 041   105   101   6857 29.4297  0.8069 14.9180  8.3530  3.9993 0.11417  8.333 16.470 24.222 19.109  6.3575 19.7411 32.0245
 1993 042   106   102   6947 32.4638  0.9376 15.7269  8.8704  5.3133 0.11423  8.308 16.234 27.343 22.052  6.3715 19.7416 31.9367
 1993 043   107   103   7026 30.1324  1.0086 14.3529  7.9559  5.8632 0.10670  8.266 15.963 28.653 23.649  6.3916 19.7567 31.7957
 1993 044   108   104   7090 26.4056  1.0211 13.0418  6.9452  4.9785 0.08305  8.209 15.667 25.875 22.158  6.3972 19.7625 31.7551
 1993 045   109   105   7175 28.0557  0.9790 13.3493  7.4027  5.4937 0.09526  8.154 15.383 27.925 22.887  6.4070 19.7719 31.6842
 1993 046   110   106   7266 28.9303  0.9037 13.6925  7.8259  5.2163 0.10842  8.107 15.128 26.881 22.236  6.4151 19.7697 31.6358
 1993 047   111   107   7299 14.8957  1.1851  8.0835  3.3875  4.0184 0.00723  7.977 14.706 24.511 21.403  6.4086 19.7799 31.6665
 1993 048   112   108   7322 14.2765  1.1712  7.6927  3.2132  3.9731 0.00563  7.838 14.280 23.638 21.567  6.4028 19.7911 31.6917
 1993 049   113   109   7383 22.4850  1.0334 10.4724  5.6337  5.3261 0.06557  7.731 13.929 27.774 23.882  6.4110 19.8009 31.6301
 1993 050   114   110   7433 19.5749  1.1106  9.2851  4.6798  5.0201 0.03592  7.591 13.524 26.548 23.799  6.4142 19.8157 31.5954
 1993 051   115   111   7486 19.0000  0.9245  9.1103  4.8624  4.0781 0.05637  7.479 13.195 24.184 21.293  6.4147 19.8082 31.5997
 1993 052   116   112   7552 19.5942  0.7005  9.6065  5.7403  2.9821 0.07852  7.404 12.962 21.372 17.519  6.4198 19.7092 31.6671
 1993 053   117   113   7626 22.1055  0.6905 10.3371  6.3159  3.5684 0.09479  7.330 12.739 23.913 18.990  6.4239 19.6516 31.6987
 1993 054   118   114   7697 21.6311  0.7189 10.0088  6.1596  3.6492 0.08792  7.243 12.497 24.042 19.441  6.4269 19.6113 31.7206
 1993 055   119   115   7766 21.5074  0.7408  9.7268  6.0527  3.9093 0.08793  7.146 12.241 24.409 20.451  6.4298 19.5924 31.7210
 1993 056   120   116   7820 18.2853  0.8056  8.2284  4.9554  3.8715 0.06810  7.022 11.942 24.818 20.897  6.4316 19.5843 31.7180
 1993 057   121   117   7879 19.6277  0.7605  8.5922  5.3713  4.0800 0.08083  6.905 11.665 25.505 21.335  6.4349 19.5785 31.7036
 1993 058   122   118   7931 18.8419  0.7952  7.8723  4.9354  4.6515 0.07608  6.772 11.367 28.306 22.997  6.4401 19.5819 31.6677
 1993 059   123   119   7960 15.2934  0.9883  5.9441  3.4901  5.6018 0.03392  6.577 10.954 30.968 26.516  6.4466 19.5905 31.6180
 1993 060   124   120   7995 13.4978  0.8140  5.9506  3.5007  3.4490 0.03800  6.415 10.614 23.942 20.595  6.4462 19.5854 31.6260
 1993 061   125   121   8037 12.7409  0.8294  6.4083  2.6329  2.6836 0.00000  6.232 10.241 21.825 17.767  6.3970 19.6470 31.8719
 1993 062   126   122   7861 13.6896  0.0409  6.2804  2.3786  2.8654 0.23817  6.284  9.866 22.937 18.239  6.3430 19.7271 32.1291
 1993 063   127   123   7708  9.3158  0.6831  4.6356  2.0709  2.2047 0.00000  6.048  9.094 21.076 16.487  6.3132 19.7474 32.2951
 1993 064   128   124   7582  7.6549  0.6413  3.4086  1.4012  2.6637 0.00000  5.797  8.391 23.906 19.175  6.2920 19.7813 32.3936
 1993 065   129   125   7458  4.4578  0.6115  1.4863  0.4827  3.1048 0.00000  5.531  7.744 25.288 22.337  6.2918 19.7838 32.3924
 1993 066   130   126   7349  2.4768  0.5394  0.0627  0.0180  2.9376 0.00000  5.259  7.173 24.102 22.538  6.2918 19.7839 32.3924
 1993 067   131   127   7263  3.8617  0.4925  0.8592  0.2465  3.2793 0.00000  5.002  6.661 27.343 23.648  6.2919 19.7856 32.3900
 1993 068   132   128   7195  3.3069  0.4162  0.8118  0.2329  2.7072 0.00000  4.772  6.224 25.749 21.416  6.2917 19.7864 32.3905
 1993 069   133   129   7136  2.6975  0.3860  0.1805  0.0518  2.8572 0.00000  4.538  5.829 26.945 22.400  6.2917 19.7867 32.3903
 1993 070   134   130   7086  2.1898  0.3553  0.0000  0.0000  2.8854 0.00000  4.311  5.473 27.473 22.788  6.2917 19.7867 32.3903
 1993 071   135   131   7044  1.4107  0.3330  0.0000  0.0000  3.0901 0.00000  4.091  5.148 29.206 23.954  6.2917 19.7867 32.3903
 1993 072   136   132   6996  0.9425  0.3021  0.0000  0.0000  2.6292 0.00000  3.886  4.858 24.760 22.491  6.2917 19.7867 32.3903
 1993 073   137   133   6966  1.0820  0.2865  0.0000  0.0000  2.8525 0.00000  3.688  4.589 27.576 23.392  6.2917 19.7867 32.3903

*DSSAT Cropping System Model Ver. 4.6.1.000 -release      NOV 01, 2016; 12:10:37
                                                                                
*RUN   4        : UYSB                      CRGRO046 UYSB1026    1              
 MODEL          : CRGRO046 - Soybean                                            
 EXPERIMENT     : UYSB1026 SN late to create DSS                                
 DATA PATH      :                                                               
 TREATMENT  1   : UYSB                      CRGRO046                            
  
@YEAR DOY   DAS   DAP   TWAD    PHAD    CMAD    CGRD    GRAD    MRAD    CHAD   CL%D   CS%D   TGNN   TGAV    GN%D    GL%D    GC%D
 1993 306     4     0      0  0.0000  0.0000  0.0000  0.0000  0.0000 0.00000  0.000  0.000 22.662 17.118  0.0000  0.0000  0.0000
 1993 307     5     1      0  0.0000  0.0000  0.0000  0.0000  0.0000 0.00000  0.000  0.000 26.426 20.773  0.0000  0.0000  0.0000
 1993 308     6     2      0  0.0000  0.0000  0.0000  0.0000  0.0000 0.00000  0.000  0.000 26.976 21.932  0.0000  0.0000  0.0000
 1993 309     7     3      0  0.0000  0.0000  0.0000  0.0000  0.0000 0.00000  0.000  0.000 20.141 17.493  0.0000  0.0000  0.0000
 1993 310     8     4      0  0.0000  0.0000  0.0000  0.0000  0.0000 0.00000  0.000  0.000 15.758 13.647  0.0000  0.0000  0.0000
 1993 311     9     5      0  0.0000  0.0000  0.0000  0.0000  0.0000 0.00000  0.000  0.000 20.680 15.597  0.0000  0.0000  0.0000
 1993 312    10     6      8  0.0000  0.0004  0.0003  0.0001  0.0000 0.00000  3.951  7.898 24.990 18.153  0.0000  0.0000  0.0000
 1993 313    11     7      9  0.1880  0.0005  0.1172  0.0410  0.0142 0.00000  3.901  7.805 27.581 21.459  0.0000  0.0000  0.0000
 1993 314    12     8     10  0.1903  0.0007  0.1169  0.0400  0.0182 0.00000  3.845  7.707 30.028 24.264  0.0000  0.0000  0.0000
 1993 315    13     9     11  0.1237  0.0008  0.0751  0.0255  0.0138 0.00000  3.784  7.593 27.074 24.210  0.0000  0.0000  0.0000
 1993 316    14    10     12  0.2172  0.0007  0.1385  0.0444  0.0169 0.00000  3.740  7.547 24.807 21.763  0.0000  0.0000  0.0000
 1993 317    15    11     13  0.1276  0.0007  0.0809  0.0263  0.0105 0.00000  3.700  7.485 22.524 19.516  0.0000  0.0000  0.0000
 1993 318    16    12     13  0.1071  0.0006  0.0680  0.0229  0.0077 0.00000  3.672  7.438 18.514 17.009  0.0000  0.0000  0.0000
 1993 319    17    13     14  0.1303  0.0007  0.0831  0.0265  0.0100 0.00000  3.638  7.391 20.376 18.513  0.0000  0.0000  0.0000
 1993 320    18    14     15  0.1745  0.0008  0.1122  0.0343  0.0134 0.00000  3.602  7.356 21.216 19.712  0.0000  0.0000  0.0000
 1993 321    19    15     16  0.1564  0.0007  0.1012  0.0316  0.0102 0.00000  3.579  7.332 19.444 16.972  0.0000  0.0000  0.0000
 1993 322    20    16     17  0.2392  0.0007  0.1462  0.0579  0.0130 0.00000  3.599  7.305 19.611 16.530  0.0000  0.0000  0.0000
 1993 323    21    17     20  0.4166  0.0009  0.2577  0.0960  0.0235 0.00000  3.625  7.315 23.154 18.103  0.0000  0.0000  0.0000
 1993 324    22    18     23  0.5279  0.0011  0.3290  0.1159  0.0331 0.00000  3.637  7.339 25.066 19.512  0.0000  0.0000  0.0000
 1993 325    23    19     27  0.6068  0.0015  0.3752  0.1290  0.0462 0.00000  3.633  7.352 27.733 21.821  0.0000  0.0000  0.0000
 1993 326    24    20     31  0.6836  0.0018  0.4289  0.1431  0.0501 0.00000  3.621  7.373 25.796 21.603  0.0000  0.0000  0.0000
 1993 327    25    21     35  0.6544  0.0020  0.4046  0.1431  0.0491 0.00000  3.614  7.364 26.230 21.069  0.0000  0.0000  0.0000
 1993 328    26    22     39  0.6436  0.0026  0.3912  0.1433  0.0575 0.00000  3.595  7.329 26.080 23.142  0.0000  0.0000  0.0000
 1993 329    27    23     41  0.4960  0.0026  0.3030  0.1086  0.0453 0.00000  3.567  7.285 24.260 21.787  0.0000  0.0000  0.0000
 1993 330    28    24     46  0.7227  0.0022  0.4575  0.1591  0.0455 0.00000  3.558  7.304 20.547 18.827  0.0000  0.0000  0.0000
 1993 331    29    25     50  0.6198  0.0022  0.3920  0.1349  0.0386 0.00000  3.548  7.303 19.726 17.683  0.0000  0.0000  0.0000
 1993 332    30    26     56  1.0229  0.0024  0.6444  0.2297  0.0559 0.00000  3.562  7.334 20.953 17.655  0.0000  0.0000  0.0000
 1993 333    31    27     64  1.3864  0.0029  0.8698  0.3081  0.0800 0.00000  3.582  7.373 23.961 18.298  0.0000  0.0000  0.0000
 1993 334    32    28     68  0.5834  0.0028  0.3569  0.1355  0.0378 0.00000  3.576  7.336 17.541 16.322  0.0000  0.0000  0.0000
 1993 335    33    29     76  1.3734  0.0028  0.8916  0.3008  0.0640 0.00000  3.609  7.376 20.200 15.683  0.0000  0.0000  0.0000
 1993 336    34    30     89  2.0182  0.0045  1.2665  0.4304  0.1288 0.00000  3.608  7.416 25.888 19.472  0.0000  0.0000  0.0000
 1993 337    35    31     98  1.6015  0.0072  0.9822  0.3238  0.1529 0.00000  3.576  7.377 27.235 23.866  0.0000  0.0000  0.0000
 1993 338    36    32    105  1.1348  0.0066  0.7419  0.2209  0.1012 0.00000  3.580  7.326 23.738 20.907  0.0000  0.0000  0.0000
 1993 339    37    33    118  2.0336  0.0000  1.2036  0.3066  0.1086 0.23221  7.492 10.580 19.993 17.305  0.0000  0.0000  0.0000
 1993 340    38    34    125  1.4375  0.0100  0.7764  0.3401  0.1082 0.00000  7.156 10.207 22.939 19.031  0.0000  0.0000  0.0000
 1993 341    39    35    139  2.4885  0.0144  1.3619  0.5533  0.2252 0.00000  6.759  9.719 26.795 23.569  0.0000  0.0000  0.0000
 1993 342    40    36    155  2.8368  0.0151  1.6155  0.6442  0.2499 0.00000  6.262  9.359 27.068 23.233  0.0000  0.0000  0.0000
 1993 343    41    37    178  3.9388  0.0158  2.3215  0.8755  0.3270 0.00000  5.801  9.015 28.042 23.060  0.0000  0.0000  0.0000
 1993 344    42    38    203  4.4034  0.0180  2.6255  0.9922  0.3632 0.00000  5.439  8.726 26.678 23.130  0.0000  0.0000  0.0000
 1993 345    43    39    235  5.4674  0.0195  3.2803  1.2401  0.4484 0.00000  5.133  8.481 28.325 23.021  0.0000  0.0000  0.0000
 1993 346    44    40    271  6.1602  0.0255  3.6281  1.4088  0.6283 0.00000  4.881  8.260 30.560 26.152  0.0000  0.0000  0.0000
 1993 347    45    41    288  3.5744  0.0251  2.2173  0.7629  0.3470 0.00000  4.774  8.103 24.680 22.745  0.0000  0.0000  0.0000
 1993 348    46    42    330  7.1652  0.0280  4.4106  1.5635  0.6155 0.01043  4.652  8.031 26.281 23.809  0.0000  0.0000  0.0000
 1993 349    47    43    351  3.8196  0.0222  2.1930  0.9075  0.2789 0.01450  4.579  8.029 20.741 18.699  0.0000  0.0000  0.0000
 1993 350    48    44    410  8.9666  0.0000  5.1645  1.5002  0.5227 0.95708  6.334 13.394 22.009 19.071  0.0000  0.0000  0.0000
 1993 351    49    45    479 11.5691  0.0475  6.7757  2.6463  0.7892 0.10786  6.045 12.867 26.252 20.734  0.0000  0.0000  0.0000
 1993 352    50    46    545 12.0507  0.0620  6.1974  2.9365  0.9822 0.13329  5.828 12.574 27.411 22.861  0.0000  0.0000  0.0000
 1993 353    51    47    624 14.0123  0.0706  7.8242  3.2181  1.1788 0.21310  5.740 12.483 28.118 23.317  0.0000  0.0000  0.0000
 1993 354    52    48    694 11.9952  0.0535  7.0004  2.8859  0.6594 0.21940  5.746 12.539 20.363 17.568  0.0000  0.0000  0.0000
 1993 355    53    49    771 12.9980  0.0510  7.6534  3.1243  0.6533 0.26722  5.777 12.673 21.319 15.981  0.0000  0.0000  0.0000
 1993 356    54    50    871 17.4866  0.0901 10.0212  4.0702  1.3225 0.40276  5.832 12.885 27.120 21.244  0.0000  0.0000  0.0000
 1993 357    55    51    976 18.8651  0.1220 10.4807  4.2831  1.8545 0.48338  5.902 13.133 30.373 24.640  0.0000  0.0000  0.0000
 1993 358    56    52   1093 20.7615  0.1463 11.9088  4.4743  2.1156 0.62533  6.031 13.483 30.031 25.266  0.0000  0.0000  0.0000
 1993 359    57    53   1190 18.0733  0.1805  9.5111  4.0541  2.1998 0.56414  6.080 13.709 30.884 26.799  0.0000  0.0000  0.0000
 1993 360    58    54   1305 20.7838  0.1913 12.0143  4.3195  2.1688 0.79661  6.260 14.132 28.056 24.974  0.0000  0.0000  0.0000
 1993 361    59    55   1365 11.6722  0.1742  5.8489  2.8135  1.1956 0.42935  6.263 14.244 22.681 21.283  0.0000  0.0000  0.0000
 1993 362    60    56   1490 22.9632  0.1826 12.3828  5.3171  1.8349 0.98506  6.441 14.756 25.062 21.192  0.0000  0.0000  0.0000
 1993 363    61    57   1596 19.2886  0.1608 10.5083  4.5257  1.2660 0.87245  6.590 15.165 20.407 18.006  0.0000  0.0000  0.0000
 1993 364    62    58   1742 25.8603  0.1825 14.1431  5.9189  1.6814 1.24120  6.794 15.722 23.480 18.320  0.0000  0.0000  0.0000
 1993 365    63    59   1912 29.6877  0.2491 17.3264  6.1328  2.3083 1.58826  7.077 16.361 25.925 20.621  0.0000  0.0000  0.0000
 1994 001    64    60   2103 30.7507  0.3162 18.8066  5.8009  2.7041 1.82472  7.317 16.965 26.544 22.100  0.0000  0.0000  0.0000
 1994 002    65    61   2283 28.0667  0.2787 17.5167  5.3350  1.9739 1.75256  7.525 17.491 22.690 18.640  0.0000  0.0000  0.0000
 1994 003    66    62   2466 28.4317  0.2887 17.7230  5.1485  1.9471 1.88834  7.732 18.022 22.960 17.763  0.0000  0.0000  0.0000
 1994 004    67    63   2674 32.9433  0.0000 18.4517  5.1627  2.7099 3.72636  8.432 19.882 25.518 20.213  0.0000  0.0000  0.0000
 1994 005    68    64   2865 33.4214  0.5462 18.9351  6.5236  3.4349 2.12755  8.553 20.152 28.016 22.711  0.0000  0.0000  0.0000
 1994 006    69    65   2965 20.5951  0.6703 10.7255  4.0480  3.2570 1.18271  8.534 20.119 29.622 25.142  0.0000  0.0000  0.0000
 1994 007    70    66   3107 27.2097  0.6852 15.0155  4.9620  3.6417 1.76276  8.620 20.272 28.755 24.632  0.0000  0.0000  0.0000
 1994 008    71    67   3266 28.3677  0.6349 16.8054  4.7583  3.0827 1.97495  8.743 20.527 24.558 22.049  0.0000  0.0000  0.0000
 1994 009    72    68   3475 34.9239  0.2979 20.1468  5.8019  2.9897 2.61440  8.991 21.103 22.630 20.049  0.0000  0.0000  0.0000
 1994 010    73    69   3665 33.0753  0.5284 18.5458  6.3025  2.5279 2.35262  9.136 21.434 22.446 17.786  0.0000  0.0000  0.0000
 1994 011    74    70   3890 37.7187  0.6796 22.0195  6.7552  3.4456 2.83123  9.297 21.798 25.943 19.957  0.0000  0.0000  0.0000
 1994 012    75    71   4090 36.8637  0.8332 20.1121  7.0927  4.0270 2.68042  9.426 22.070 27.197 21.892  0.0000  0.0000  0.0000
 1994 013    76    72   4281 35.7559  0.9393 19.6029  6.7441  4.2140 2.54886  9.535 22.283 26.595 22.617  0.0000  0.0000  0.0000
 1994 014    77    73   4478 37.0474  0.9715 20.1713  6.9515  4.4558 2.66029  9.648 22.509 27.817 22.585  0.0000  0.0000  0.0000
 1994 015    78    74   4684 38.7375  1.0027 21.0530  7.2684  4.6635 2.79729  9.767 22.752 28.355 22.442  0.0000  0.0000  0.0000
 1994 016    79    75   4880 36.3183  0.9510 20.2342  6.9163  3.8577 2.50027  9.871 22.955 24.837 20.465  0.0000  0.0000  0.0000
 1994 017    80    76   5091 38.5245  1.0338 21.6641  7.2201  4.2752 2.61998  9.975 23.159 26.061 20.972  0.0000  0.0000  0.0000
 1994 018    81    77   5273 39.3291  1.3506 21.1594  7.2049  5.5590 2.60341 10.058 23.286 28.385 24.157  0.0000  0.0000  0.0000
 1994 019    82    78   5443 38.9169  1.4691 20.8724  7.0855  6.0492 2.42928 10.120 23.360 29.790 25.060  6.4633 20.5000 30.6042
 1994 020    83    79   5603 37.8214  1.6047 19.9783  6.7282  7.0096 1.96974 10.138 23.326 32.774 26.970  6.5820 20.5000 29.8626
 1994 021    84    80   5757 38.5812  1.4557 19.8592  8.1189  4.9943 1.62250 10.154 23.280 25.343 22.334  6.4006 20.4300 31.0666
 1994 022    85    81   5891 37.6701  1.6170 19.1610  7.7929  5.6566 1.39283 10.140 23.162 27.899 23.743  6.3776 20.4600 31.1801
 1994 023    86    82   5967 23.2523  0.8655 12.4919  4.5847  4.1751 0.19254 10.139 23.043 24.632 22.124  6.3192 20.4056 31.5994
 1994 024    87    83   5999 17.7199  1.3603  9.8326  3.1822  4.3880 0.10405 10.072 22.769 26.274 23.623  6.3246 20.4356 31.5355
 1994 025    88    84   6062 27.0413  1.6256 13.8682  6.1028  4.5364 0.00000  9.958 22.388 24.711 22.418  6.3028 20.4213 31.6859
 1994 026    89    85   6179 35.4122  1.6349 19.3663  7.5259  5.0772 0.59367  9.890 22.130 25.430 22.421  6.2880 20.4118 31.7882
 1994 027    90    86   6293 37.8411  1.4769 20.5323  8.2819  4.5736 0.92044  9.863 21.985 25.534 20.233  6.2605 20.2143 32.1577
 1994 028    91    87   6424 37.7839  1.7152 19.0052  8.6625  5.8065 0.33799  9.764 21.654 28.442 23.178  6.2708 20.2854 32.0221
 1994 029    92    88   6542 37.1229  1.8976 18.3207  8.0717  7.1639 0.18900  9.636 21.245 31.337 26.073  6.3312 20.3313 31.5986
 1994 030    93    89   6578 27.7972  1.9438 14.3812  5.8960  6.2622 0.00000  9.488 20.782 29.437 25.713  6.3682 20.3642 31.3345
 1994 031    94    90   6662 36.1108  1.8267 17.2225  8.4551  6.6872 0.00000  9.350 20.341 30.513 24.964  6.3853 20.3911 31.2005
 1994 032    95    91   6742 35.9645  1.9227 17.2037  8.0968  7.6454 0.00000  9.201 19.872 32.134 26.908  6.4291 20.4108 30.9072
 1994 033    96    92   6768 21.1329  1.8613 10.8340  4.6675  5.6247 0.00000  9.058 19.415 28.939 25.002  6.4345 20.4272 30.8574
 1994 034    97    93   6770 22.5775  1.7895 11.5714  5.2646  5.2329 0.00000  8.926 18.971 26.819 23.848  6.4208 20.4399 30.9298
 1994 035    98    94   6818 26.6031  1.7599 13.3601  6.5019  5.6769 0.00000  8.797 18.525 27.988 24.194  6.4148 20.4506 30.9570
 1994 036    99    95   6900 29.6288  1.3311 15.4398  8.0417  3.5396 0.00000  8.711 18.187 21.155 18.042  6.3846 20.0862 31.5097
 1994 037   100    96   7004 28.1486  1.1762 15.2071  7.6046  3.0619 0.00000  8.640 17.888 22.074 15.777  6.3854 19.5809 32.0104
 1994 038   101    97   7104 34.4127  1.4319 17.6196  8.9419  4.6305 0.00000  8.541 17.516 25.952 19.620  6.3596 19.5427 32.2100
 1994 039   102    98   7183 32.8633  1.6519 16.1687  8.3097  6.1388 0.00000  8.417 17.079 28.679 23.671  6.3571 19.6671 32.1011
 1994 040   103    99   7194 17.2199  1.5280  9.7989  3.8616  4.5213 0.01356  8.308 16.675 24.644 22.284  6.3511 19.7214 32.0844
 1994 041   104   100   7209 19.2203  1.5349 10.7014  4.3445  4.8538 0.01143  8.196 16.259 25.510 22.829  6.3477 19.7808 32.0463
 1994 042   105   101   7262 24.9986  1.2893 13.0461  6.1361  4.9069 0.06139  8.122 15.927 25.203 22.021  6.3532 19.7965 31.9958
 1994 043   106   102   7330 27.3752  1.2634 13.8591  6.8330  5.3741 0.07394  8.050 15.599 26.055 22.766  6.3645 19.8190 31.9029
 1994 044   107   103   7387 24.9744  1.2387 13.0454  6.1975  4.6939 0.05014  7.969 15.259 24.565 21.313  6.3626 19.8167 31.9170
 1994 045   108   104   7412 19.5462  1.4361 10.4377  4.3495  5.2150 0.01375  7.847 14.832 26.449 23.412  6.3629 19.8528 31.8789
 1994 046   109   105   7457 22.7224  1.2671 11.4253  5.3560  5.4782 0.05606  7.750 14.466 26.419 23.561  6.3726 19.8700 31.8010
 1994 047   110   106   7474 15.5328  1.2743  8.7674  3.5296  3.9646 0.00058  7.625 14.061 22.922 20.565  6.3638 19.8656 31.8609
 1994 048   111   107   7497 15.8960  1.0447  8.7840  4.0080  3.3700 0.03603  7.532 13.740 20.949 18.663  6.3632 19.7956 31.9343
 1994 049   112   108   7584 27.0925  0.9602 13.2513  7.3458  4.5166 0.08034  7.457 13.461 23.883 20.491  6.3660 19.7628 31.9498
 1994 050   113   109   7668 26.4728  0.9066 12.6366  7.0118  4.6628 0.09178  7.384 13.201 26.361 20.542  6.3709 19.7313 31.9506
 1994 051   114   110   7742 25.2255  1.0507 11.8075  6.6510  5.2653 0.06618  7.275 12.872 27.443 22.553  6.3757 19.7437 31.9081
 1994 052   115   111   7798 21.9408  1.0472  9.9837  5.4936  5.4922 0.07217  7.160 12.540 28.356 23.753  6.3857 19.7518 31.8377
 1994 053   116   112   7807 12.1956  1.2755  6.0501  2.3652  4.7815 0.00000  6.978 12.084 26.426 23.893  6.3851 19.7700 31.8234
 1994 054   117   113   7820 11.4513  1.1375  5.9156  2.4897  3.7725 0.00000  6.808 11.670 23.011 21.156  6.3806 19.7760 31.8452
 1994 055   118   114   7867 18.7480  1.0865  8.6263  4.7454  4.8435 0.02668  6.646 11.280 26.036 23.076  6.3815 19.7910 31.8246
 1994 056   119   115   7916 18.5956  0.9943  8.3975  4.7577  4.6772 0.04116  6.496 10.927 26.048 22.661  6.3835 19.7990 31.8041
 1994 057   120   116   7956 15.8917  0.9427  7.3260  4.0660  4.0108 0.03350  6.344 10.583 25.028 21.143  6.3830 19.7956 31.8106
 1994 058   121   117   8000 17.3172  0.8930  7.5351  4.3863  4.5423 0.05476  6.202 10.264 26.091 22.599  6.3869 19.7972 31.7848
 1994 059   122   118   8004  7.7190  0.9439  3.8779  1.6389  2.9440 0.00000  6.027  9.893 21.288 19.187  6.3842 19.7866 31.8123
 1994 060   123   119   8049 15.6123  0.7589  7.1013  4.3222  3.3333 0.04851  5.896  9.616 23.147 19.123  6.3856 19.7541 31.8361
 1994 061   124   120   8093 12.3396  0.5803  6.4490  2.5877  2.3461 0.06674  5.802  9.417 20.360 15.697  6.3260 19.7922 32.1700
 1994 062   125   121   7884 15.5400  0.0000  6.8670  2.6211  3.7480 0.27843  5.869  9.063 26.349 20.086  6.2616 19.9127 32.4520
 1994 063   126   122   7703 12.5468  0.8333  5.2988  2.5566  4.1306 0.00000  5.609  8.259 28.364 22.388  6.2373 19.9702 32.5466
 1994 064   127   123   7553  9.4952  0.7174  3.7666  1.8633  3.7493 0.00000  5.353  7.555 26.984 22.432  6.2278 19.9950 32.5812
 1994 065   128   124   7426  6.8675  0.5988  2.6444  1.1395  3.1761 0.00000  5.115  6.951 25.640 21.231  6.2234 20.0040 32.5996
 1994 066   129   125   7318  5.6198  0.5308  1.9596  0.8574  3.1666 0.00000  4.881  6.418 26.080 21.779  6.2234 20.0054 32.5985
 1994 067   130   126   7229  3.9771  0.4451  1.3250  0.4650  2.6253 0.00000  4.668  5.965 24.697 20.007  6.2232 20.0033 32.6018
 1994 068   131   127   7153  2.9468  0.3979  0.6649  0.1907  2.5194 0.00000  4.458  5.566 24.417 20.013  6.2231 20.0023 32.6034
 1994 069   132   128   7086  2.2933  0.3777  0.0000  0.0000  2.8800 0.00000  4.240  5.202 26.920 21.879  6.2231 20.0023 32.6034
 1994 070   133   129   7031  1.9894  0.3481  0.0000  0.0000  3.0442 0.00000  4.030  4.875 28.405 22.691  6.2231 20.0023 32.6034
 1994 071   134   130   6984  1.3757  0.3211  0.0000  0.0000  2.8644 0.00000  3.829  4.580 26.878 22.443  6.2231 20.0023 32.6034
 1994 072   135   131   6944  1.2455  0.3077  0.0000  0.0000  3.3674 0.00000  3.630  4.307 29.829 24.650  6.2231 20.0023 32.6034
 1994 073   136   132   6910  0.8940  0.2890  0.0000  0.0000  3.4784 0.00000  3.438  4.056 30.384 25.350  6.2231 20.0023 32.6034

*DSSAT Cropping System Model Ver. 4.6.1.000 -release      NOV 01, 2016; 12:10:37
                                                                                
*RUN   5        : UYSB                      CRGRO046 UYSB1026    1              
 MODEL          : CRGRO046 - Soybean                                            
 EXPERIMENT     : UYSB1026 SN late to create DSS                                
 DATA PATH      :                                                               
 TREATMENT  1   : UYSB                      CRGRO046                            
  
@YEAR DOY   DAS   DAP   TWAD    PHAD    CMAD    CGRD    GRAD    MRAD    CHAD   CL%D   CS%D   TGNN   TGAV    GN%D    GL%D    GC%D
 1994 306     4     0      0  0.0000  0.0000  0.0000  0.0000  0.0000 0.00000  0.000  0.000 24.779 19.771  0.0000  0.0000  0.0000
 1994 307     5     1      0  0.0000  0.0000  0.0000  0.0000  0.0000 0.00000  0.000  0.000 25.370 20.326  0.0000  0.0000  0.0000
 1994 308     6     2      0  0.0000  0.0000  0.0000  0.0000  0.0000 0.00000  0.000  0.000 24.906 20.183  0.0000  0.0000  0.0000
 1994 309     7     3      0  0.0000  0.0000  0.0000  0.0000  0.0000 0.00000  0.000  0.000 24.726 21.542  0.0000  0.0000  0.0000
 1994 310     8     4      0  0.0000  0.0000  0.0000  0.0000  0.0000 0.00000  0.000  0.000 21.516 17.794  0.0000  0.0000  0.0000
 1994 311     9     5      0  0.0000  0.0000  0.0000  0.0000  0.0000 0.00000  0.000  0.000 23.309 17.797  0.0000  0.0000  0.0000
 1994 312    10     6      8  0.0000  0.0006  0.0004  0.0001  0.0000 0.00000  3.935  7.865 25.797 21.752  0.0000  0.0000  0.0000
 1994 313    11     7      9  0.1711  0.0004  0.1090  0.0367  0.0100 0.00000  3.895  7.794 21.640 18.704  0.0000  0.0000  0.0000
 1994 314    12     8      9  0.1211  0.0004  0.0771  0.0264  0.0071 0.00000  3.862  7.734 20.920 16.910  0.0000  0.0000  0.0000
 1994 315    13     9     11  0.2026  0.0006  0.1298  0.0425  0.0129 0.00000  3.825  7.682 24.072 19.167  0.0000  0.0000  0.0000
 1994 316    14    10     12  0.1973  0.0008  0.1249  0.0402  0.0159 0.00000  3.778  7.611 25.181 21.815  0.0000  0.0000  0.0000
 1994 317    15    11     13  0.2550  0.0008  0.1631  0.0522  0.0191 0.00000  3.737  7.566 25.202 21.370  0.0000  0.0000  0.0000
 1994 318    16    12     15  0.2711  0.0010  0.1720  0.0547  0.0228 0.00000  3.694  7.515 26.622 22.575  0.0000  0.0000  0.0000
 1994 319    17    13     17  0.2444  0.0011  0.1549  0.0479  0.0221 0.00000  3.648  7.455 25.311 22.768  0.0000  0.0000  0.0000
 1994 320    18    14     18  0.2949  0.0012  0.1878  0.0573  0.0256 0.00000  3.608  7.413 26.458 22.482  0.0000  0.0000  0.0000
 1994 321    19    15     20  0.1931  0.0007  0.1260  0.0393  0.0109 0.00000  3.592  7.396 19.000 15.382  0.0000  0.0000  0.0000
 1994 322    20    16     21  0.3113  0.0007  0.1918  0.0754  0.0156 0.00000  3.622  7.375 20.739 15.401  0.0000  0.0000  0.0000
 1994 323    21    17     24  0.3829  0.0009  0.2369  0.0912  0.0208 0.00000  3.640  7.359 21.841 16.753  0.0000  0.0000  0.0000
 1994 324    22    18     26  0.4090  0.0010  0.2554  0.0964  0.0211 0.00000  3.650  7.353 20.693 16.250  0.0000  0.0000  0.0000
 1994 325    23    19     29  0.5153  0.0012  0.3248  0.1170  0.0288 0.00000  3.653  7.360 22.580 17.313  0.0000  0.0000  0.0000
 1994 326    24    20     33  0.6408  0.0016  0.4050  0.1420  0.0402 0.00000  3.648  7.375 24.665 18.824  0.0000  0.0000  0.0000
 1994 327    25    21     38  0.7079  0.0019  0.4483  0.1535  0.0473 0.00000  3.635  7.385 24.961 19.622  0.0000  0.0000  0.0000
 1994 328    26    22     42  0.8188  0.0024  0.5046  0.1849  0.0620 0.00000  3.632  7.374 27.106 21.085  0.0000  0.0000  0.0000
 1994 329    27    23     48  0.9164  0.0031  0.5536  0.2040  0.0852 0.00000  3.621  7.350 29.737 23.788  0.0000  0.0000  0.0000
 1994 330    28    24     51  0.4814  0.0025  0.2984  0.1080  0.0362 0.00000  3.600  7.313 20.556 18.334  0.0000  0.0000  0.0000
 1994 331    29    25     57  1.1015  0.0025  0.7025  0.2424  0.0629 0.00000  3.600  7.356 23.190 17.886  0.0000  0.0000  0.0000
 1994 332    30    26     60  0.4589  0.0026  0.2849  0.1031  0.0341 0.00000  3.581  7.318 19.378 16.941  0.0000  0.0000  0.0000
 1994 333    31    27     68  1.2356  0.0033  0.7846  0.2715  0.0749 0.00000  3.578  7.348 22.201 18.760  0.0000  0.0000  0.0000
 1994 334    32    28     77  1.5552  0.0046  0.9487  0.3508  0.1279 0.00000  3.583  7.345 28.608 22.264  0.0000  0.0000  0.0000
 1994 335    33    29     87  1.7807  0.0058  1.0817  0.3883  0.1659 0.00000  3.575  7.340 29.854 24.155  0.0000  0.0000  0.0000
 1994 336    34    30     95  1.3576  0.0069  0.8159  0.2875  0.1477 0.00000  3.545  7.295 29.714 24.695  0.0000  0.0000  0.0000
 1994 337    35    31     99  0.8620  0.0050  0.5358  0.1877  0.0672 0.00000  3.524  7.262 19.881 18.232  0.0000  0.0000  0.0000
 1994 338    36    32    110  1.7469  0.0046  1.1070  0.3827  0.0950 0.00000  3.531  7.291 20.643 17.022  0.0000  0.0000  0.0000
 1994 339    37    33    124  2.3362  0.0055  1.4831  0.5011  0.1312 0.00000  3.541  7.333 22.913 17.608  0.0000  0.0000  0.0000
 1994 340    38    34    142  2.8640  0.0083  1.7928  0.5940  0.2098 0.00000  3.538  7.353 26.522 20.966  0.0000  0.0000  0.0000
 1994 341    39    35    161  3.2118  0.0103  2.0101  0.6593  0.2496 0.00000  3.527  7.361 26.339 21.895  0.0000  0.0000  0.0000
 1994 342    40    36    182  3.4626  0.0120  2.1572  0.7082  0.2885 0.00000  3.513  7.360 27.926 22.371  0.0000  0.0000  0.0000
 1994 343    41    37    203  3.7170  0.0153  2.1633  0.8444  0.4130 0.00000  3.528  7.306 32.820 25.903  0.0000  0.0000  0.0000
 1994 344    42    38    228  4.4298  0.0187  2.5510  0.9955  0.5365 0.00000  3.535  7.253 33.343 27.824  0.0000  0.0000  0.0000
 1994 345    43    39    251  4.3342  0.0214  2.4547  0.9555  0.5934 0.00000  3.527  7.192 34.438 29.170  0.0000  0.0000  0.0000
 1994 346    44    40    279  5.0388  0.0238  2.8409  1.1030  0.7111 0.00000  3.519  7.142 35.020 29.967  0.0000  0.0000  0.0000
 1994 347    45    41    302  4.1394  0.0253  2.3996  0.9294  0.4912 0.00000  3.499  7.081 29.481 25.933  0.0000  0.0000  0.0000
 1994 348    46    42    329  4.8422  0.0262  2.8482  1.1005  0.5106 0.00000  3.487  7.041 27.768 24.722  0.0000  0.0000  0.0000
 1994 349    47    43    383  9.1556  0.0266  5.4859  2.1166  0.7778 0.00915  3.532  7.142 28.309 23.759  0.0000  0.0000  0.0000
 1994 350    48    44    417  6.0306  0.0300  3.5784  1.3841  0.5466 0.02559  3.567  7.256 25.876 22.579  0.0000  0.0000  0.0000
 1994 351    49    45    488 11.8707  0.0328  7.0998  2.7528  0.9003 0.08929  3.721  7.698 26.484 22.399  0.0000  0.0000  0.0000
 1994 352    50    46    564 12.5088  0.0309  7.5866  2.9473  0.7281 0.12859  3.888  8.177 23.385 18.763  0.0000  0.0000  0.0000
 1994 353    51    47    643 13.2481  0.0466  7.8490  3.0648  0.9894 0.17477  4.046  8.647 25.818 21.554  0.0000  0.0000  0.0000
 1994 354    52    48    732 15.5072  0.0620  9.2293  3.4055  1.3362 0.25894  4.259  9.200 28.012 23.461  0.0000  0.0000  0.0000
 1994 355    53    49    826 16.2223  0.0779  9.5626  3.5097  1.4774 0.32705  4.462  9.752 27.657 24.039  0.0000  0.0000  0.0000
 1994 356    54    50    928 17.3511  0.0879 10.4386  3.6323  1.5906 0.41470  4.685 10.340 28.932 23.630  0.0000  0.0000  0.0000
 1994 357    55    51   1060 20.8403  0.1139 13.3456  3.8930  2.1708 0.61413  4.955 11.062 30.752 25.772  0.0000  0.0000  0.0000
 1994 358    56    52   1180 21.2621  0.1403 12.0966  4.4725  2.4139 0.63621  5.158 11.638 31.892 26.482  0.0000  0.0000  0.0000
 1994 359    57    53   1313 24.1597  0.1741 12.3417  5.4651  3.0396 0.72854  5.281 12.157 33.238 28.222  0.0000  0.0000  0.0000
 1994 360    58    54   1453 25.3890  0.1841 14.4145  5.3143  2.6307 0.94558  5.558 12.815 29.770 25.112  0.0000  0.0000  0.0000
 1994 361    59    55   1594 25.0507  0.2122 14.1511  5.1095  2.7127 1.02828  5.786 13.407 30.283 25.123  0.0000  0.0000  0.0000
 1994 362    60    56   1711 21.6900  0.2600 11.9440  4.2705  2.8382 0.95978  5.954 13.843 31.442 26.712  0.0000  0.0000  0.0000
 1994 363    61    57   1884 28.7322  0.0000 16.3959  4.5198  3.5019 2.06178  6.550 15.412 31.261 26.853  0.0000  0.0000  0.0000
[...]
 2010 058   121   117   7908 18.5234  0.7963  8.2683  5.0231  3.8382 0.05511  6.056 10.118 24.022 20.601  6.5585 19.7597 30.7495
 2010 059   122   118   7956 17.0501  0.8459  7.3502  4.4774  4.2325 0.04751  5.907  9.801 25.048 22.163  6.5566 19.7614 30.7599
 2010 060   123   119   7999 17.2261  0.9997  6.8790  2.8358  6.3676 0.09951  5.720  9.442 34.611 27.062  6.5024 19.8920 30.9679
 2010 061   124   120   7784 14.7979  0.9420  6.5825  2.8186  4.4047 0.00000  5.461  8.534 27.560 22.897  6.4517 19.9987 31.1783
 2010 062   125   121   7581  7.5091  0.7864  2.9711  1.3336  3.7079 0.00000  5.211  7.746 26.909 22.603  6.4499 20.0025 31.1854
 2010 063   126   122   7424  9.2550  0.7103  3.3015  1.7095  4.4471 0.00000  4.955  7.041 28.694 25.279  6.4503 20.0075 31.1784
 2010 064   127   123   7301  7.9651  0.5795  2.8858  1.4398  3.6942 0.00000  4.721  6.444 27.784 23.232  6.4490 20.0116 31.1822
 2010 065   128   124   7198  5.9966  0.5048  1.9604  0.8365  3.4611 0.00000  4.496  5.923 27.419 23.188  6.4481 20.0144 31.1848
 2010 066   129   125   7110  4.4695  0.4390  1.2618  0.4182  3.2127 0.00000  4.282  5.472 27.421 22.765  6.4475 20.0160 31.1874
 2010 067   130   126   7032  2.3911  0.4003  0.0000  0.0000  3.1236 0.00000  4.063  5.071 26.105 23.441  6.4475 20.0160 31.1874
 2010 068   131   127   6967  2.3956  0.3586  0.0000  0.0000  3.0327 0.00000  3.855  4.719 25.833 23.240  6.4475 20.0160 31.1874
 2010 069   132   128   6914  1.8067  0.3353  0.0000  0.0000  3.2878 0.00000  3.652  4.400 27.959 24.550  6.4475 20.0160 31.1874
 2010 070   133   129   6870  1.8024  0.2915  0.0000  0.0000  2.7859 0.00000  3.468  4.126 26.124 22.433  6.4475 20.0160 31.1874
 2010 071   134   130   6834  1.1138  0.2415  0.0000  0.0000  2.0496 0.00000  3.311  3.897 23.719 18.716  6.4475 20.0160 31.1874
 2010 072   135   131   6804  0.7308  0.2351  0.0000  0.0000  2.2464 0.00000  3.155  3.684 24.300 20.150  6.4475 20.0160 31.1874

*DSSAT Cropping System Model Ver. 4.6.1.000 -release      NOV 01, 2016; 12:10:37
                                                                                
*RUN  21        : UYSB                      CRGRO046 UYSB1026    1              
 MODEL          : CRGRO046 - Soybean                                            
 EXPERIMENT     : UYSB1026 SN late to create DSS                                
 DATA PATH      :                                                               
 TREATMENT  1   : UYSB                      CRGRO046                            
  
@YEAR DOY   DAS   DAP   TWAD    PHAD    CMAD    CGRD    GRAD    MRAD    CHAD   CL%D   CS%D   TGNN   TGAV    GN%D    GL%D    GC%D
 2010 306     4     0      0  0.0000  0.0000  0.0000  0.0000  0.0000 0.00000  0.000  0.000 24.242 17.410  0.0000  0.0000  0.0000
 2010 307     5     1      0  0.0000  0.0000  0.0000  0.0000  0.0000 0.00000  0.000  0.000 27.535 20.416  0.0000  0.0000  0.0000
 2010 308     6     2      0  0.0000  0.0000  0.0000  0.0000  0.0000 0.00000  0.000  0.000 28.717 22.277  0.0000  0.0000  0.0000
 2010 309     7     3      0  0.0000  0.0000  0.0000  0.0000  0.0000 0.00000  0.000  0.000 24.711 19.236  0.0000  0.0000  0.0000
 2010 310     8     4      0  0.0000  0.0000  0.0000  0.0000  0.0000 0.00000  0.000  0.000 23.660 17.541  0.0000  0.0000  0.0000
 2010 311     9     5      8  0.0000  0.0005  0.0004  0.0001  0.0000 0.00000  3.937  7.869 29.741 22.296  0.0000  0.0000  0.0000
 2010 312    10     6      9  0.1916  0.0006  0.1270  0.0366  0.0192 0.00000  3.902  7.769 32.607 25.054  0.0000  0.0000  0.0000
 2010 313    11     7      9  0.0498  0.0002  0.0265  0.0135  0.0024 0.00000  3.878  7.739 13.638 11.204  0.0000  0.0000  0.0000
 2010 314    12     8     10  0.1483  0.0003  0.0959  0.0319  0.0059 0.00000  3.858  7.720 19.246 12.766  0.0000  0.0000  0.0000
 2010 315    13     9     11  0.1421  0.0003  0.0924  0.0303  0.0055 0.00000  3.843  7.703 17.977 12.319  0.0000  0.0000  0.0000
 2010 316    14    10     12  0.1656  0.0004  0.1078  0.0347  0.0072 0.00000  3.825  7.680 18.891 14.021  0.0000  0.0000  0.0000
 2010 317    15    11     13  0.2041  0.0005  0.1334  0.0417  0.0096 0.00000  3.804  7.658 20.270 15.077  0.0000  0.0000  0.0000
 2010 318    16    12     14  0.1993  0.0006  0.1297  0.0404  0.0109 0.00000  3.778  7.624 21.029 16.230  0.0000  0.0000  0.0000
 2010 319    17    13     16  0.2300  0.0008  0.1493  0.0464  0.0146 0.00000  3.745  7.583 21.979 18.326  0.0000  0.0000  0.0000
 2010 320    18    14     18  0.2676  0.0008  0.1745  0.0539  0.0162 0.00000  3.715  7.552 21.480 18.077  0.0000  0.0000  0.0000
 2010 321    19    15     19  0.2986  0.0009  0.1948  0.0597  0.0188 0.00000  3.687  7.524 22.970 18.242  0.0000  0.0000  0.0000
 2010 322    20    16     22  0.3368  0.0009  0.2208  0.0672  0.0203 0.00000  3.663  7.508 23.607 17.410  0.0000  0.0000  0.0000
 2010 323    21    17     23  0.2116  0.0010  0.1366  0.0421  0.0161 0.00000  3.633  7.463 23.771 17.466  0.0000  0.0000  0.0000
 2010 324    22    18     25  0.3538  0.0015  0.2142  0.0807  0.0309 0.00000  3.624  7.395 27.225 21.564  0.0000  0.0000  0.0000
 2010 325    23    19     27  0.4492  0.0019  0.2693  0.1017  0.0429 0.00000  3.612  7.326 26.525 23.981  0.0000  0.0000  0.0000
 2010 326    24    20     31  0.5333  0.0016  0.3334  0.1181  0.0381 0.00000  3.607  7.316 24.641 20.305  0.0000  0.0000  0.0000
 2010 327    25    21     34  0.4998  0.0019  0.3135  0.1078  0.0379 0.00000  3.590  7.300 24.309 20.403  0.0000  0.0000  0.0000
 2010 328    26    22     37  0.5278  0.0022  0.3263  0.1130  0.0463 0.00000  3.569  7.273 26.815 21.870  0.0000  0.0000  0.0000
 2010 329    27    23     42  0.8589  0.0020  0.5348  0.1970  0.0552 0.00000  3.591  7.300 25.633 19.146  0.0000  0.0000  0.0000
 2010 330    28    24     48  1.0035  0.0028  0.6166  0.2222  0.0825 0.00000  3.593  7.312 28.514 22.493  0.0000  0.0000  0.0000
 2010 331    29    25     54  1.0462  0.0034  0.6384  0.2249  0.0986 0.00000  3.583  7.314 30.884 23.716  0.0000  0.0000  0.0000
 2010 332    30    26     59  0.7164  0.0025  0.4552  0.1585  0.0427 0.00000  3.575  7.313 20.180 16.954  0.0000  0.0000  0.0000
 2010 333    31    27     64  0.8404  0.0024  0.5401  0.1836  0.0452 0.00000  3.572  7.332 20.878 15.788  0.0000  0.0000  0.0000
 2010 334    32    28     73  1.4856  0.0032  0.9376  0.3303  0.0914 0.00000  3.586  7.371 26.324 17.901  0.0000  0.0000  0.0000
 2010 335    33    29     83  1.6735  0.0050  1.0240  0.3720  0.1398 0.00000  3.590  7.366 29.209 22.327  0.0000  0.0000  0.0000
 2010 336    34    30     93  1.8146  0.0063  1.0934  0.3886  0.1868 0.00000  3.578  7.350 32.132 25.035  0.0000  0.0000  0.0000
 2010 337    35    31    105  1.9266  0.0071  1.1850  0.4081  0.1765 0.00000  3.560  7.339 28.822 23.553  0.0000  0.0000  0.0000
 2010 338    36    32    119  2.3114  0.0068  1.4434  0.4939  0.1807 0.00000  3.554  7.356 28.399 21.194  0.0000  0.0000  0.0000
 2010 339    37    33    135  2.6757  0.0086  1.6511  0.5795  0.2230 0.00000  3.552  7.355 28.385 22.471  0.0000  0.0000  0.0000
 2010 340    38    34    153  2.9625  0.0087  1.8511  0.6376  0.2241 0.00000  3.551  7.367 28.052 20.703  0.0000  0.0000  0.0000
 2010 341    39    35    173  3.2634  0.0091  2.0368  0.6879  0.2637 0.00000  3.548  7.384 30.583 20.367  0.0000  0.0000  0.0000
 2010 342    40    36    190  2.7962  0.0112  1.7539  0.5888  0.2198 0.00000  3.531  7.366 26.885 20.146  0.0000  0.0000  0.0000
 2010 343    41    37    211  3.8434  0.0172  2.2445  0.8787  0.4161 0.00000  3.543  7.302 30.369 25.997  0.0000  0.0000  0.0000
 2010 344    42    38    235  4.0354  0.0141  2.3902  0.9340  0.3831 0.00000  3.562  7.278 32.154 22.370  0.0000  0.0000  0.0000
 2010 345    43    39    256  3.7707  0.0182  2.2228  0.8668  0.3806 0.00000  3.558  7.228 30.118 23.452  0.0000  0.0000  0.0000
 2010 346    44    40    267  1.9278  0.0103  1.1819  0.4604  0.1263 0.00000  3.553  7.201 19.240 15.047  0.0000  0.0000  0.0000
 2010 347    45    41    298  5.1121  0.0115  3.1725  1.2344  0.2619 0.00000  3.582  7.230 23.348 15.142  0.0000  0.0000  0.0000
 2010 348    46    42    341  7.1713  0.0170  4.4012  1.7000  0.4645 0.00000  3.610  7.256 27.130 18.602  0.0000  0.0000  0.0000
 2010 349    47    43    389  8.0580  0.0261  5.0064  1.7989  0.6855 0.00000  3.642  7.250 29.351 22.758  0.0000  0.0000  0.0000
 2010 350    48    44    443  9.3734  0.0312  5.7325  2.0960  0.8262 0.00000  3.664  7.240 29.538 23.447  0.0000  0.0000  0.0000
 2010 351    49    45    503 10.7756  0.0389  6.1355  2.5472  1.0561 0.00000  3.641  7.220 30.505 25.130  0.0000  0.0000  0.0000
 2010 352    50    46    562 10.2384  0.0456  5.9942  2.3203  1.0699 0.00000  3.618  7.184 30.085 25.463  0.0000  0.0000  0.0000
 2010 353    51    47    595  6.4532  0.0399  4.0417  1.3564  0.5658 0.00000  3.622  7.136 22.902 20.753  0.0000  0.0000  0.0000
 2010 354    52    48    659 11.6555  0.0536  6.6057  2.6494  1.1335 0.00000  3.592  7.106 27.143 24.563  0.0000  0.0000  0.0000
 2010 355    53    49    758 16.9070  0.0546 10.0382  3.6886  1.5150 0.05232  3.640  7.283 29.686 23.990  0.0000  0.0000  0.0000
 2010 356    54    50    871 19.5042  0.0685 11.4660  4.3235  1.9234 0.12399  3.733  7.583 30.806 25.432  0.0000  0.0000  0.0000
 2010 357    55    51    996 21.7347  0.0806 12.6199  4.9020  2.1073 0.20812  3.853  7.972 30.419 25.080  0.0000  0.0000  0.0000
 2010 358    56    52   1052 11.1608  0.0922  6.7296  2.2807  1.2114 0.15089  3.926  8.144 25.696 23.259  0.0000  0.0000  0.0000
 2010 359    57    53   1190 24.8076  0.1085 13.6685  5.5716  2.5943 0.39047  4.085  8.677 30.831 26.066  0.0000  0.0000  0.0000
 2010 360    58    54   1346 27.5449  0.1183 15.5101  5.9778  2.6872 0.52979  4.283  9.271 31.032 24.654  0.0000  0.0000  0.0000
 2010 361    59    55   1505 28.9535  0.1516 16.1062  6.4084  3.0990 0.64713  4.490  9.845 31.437 25.883  0.0000  0.0000  0.0000
 2010 362    60    56   1681 31.0075  0.1563 18.2627  6.6899  2.6105 0.83880  4.754 10.492 27.656 22.424  0.0000  0.0000  0.0000
 2010 363    61    57   1854 30.2343  0.2077 17.5079  6.3079  3.0114 0.91756  4.960 11.050 28.321 24.343  0.0000  0.0000  0.0000
 2010 364    62    58   2075 34.3707  0.2121 22.1540  6.3189  2.9061 1.30422  5.234 11.779 27.060 22.115  0.0000  0.0000  0.0000
 2010 365    63    59   2294 35.4817  0.0000 21.0325  5.8555  3.5611 2.19648  5.782 13.260 28.765 24.106  0.0000  0.0000  0.0000
 2011 001    64    60   2483 30.8134  0.3379 19.3397  5.5292  3.3689 1.35281  5.943 13.660 29.164 23.967  0.0000  0.0000  0.0000
 2011 002    65    61   2636 27.3525  0.3605 15.6263  5.5250  2.8686 1.24064  6.062 13.970 25.884 22.622  0.0000  0.0000  0.0000
 2011 003    66    62   2734 18.3664  0.3601 10.6355  3.5576  2.1649 0.91107  6.134 14.142 23.424 21.345  0.0000  0.0000  0.0000
 2011 004    67    63   2886 28.0916  0.4481 15.6963  5.3405  3.5032 1.40866  6.258 14.459 28.546 24.388  0.0000  0.0000  0.0000
 2011 005    68    64   3032 27.5980  0.4992 15.3645  5.1158  3.7025 1.42268  6.375 14.747 28.852 24.981  0.0000  0.0000  0.0000
 2011 006    69    65   3279 41.5792  0.0000 23.4873  6.5389  4.9156 3.09966  6.866 16.026 30.294 25.204  0.0000  0.0000  0.0000
 2011 007    70    66   3520 42.0391  0.0000 21.8559  5.9217  6.4884 4.36341  7.545 17.832 33.141 28.983  0.0000  0.0000  0.0000
 2011 008    71    67   3743 38.7204  0.7743 22.8868  6.5557  5.4078 2.30155  7.664 18.087 30.699 26.433  0.0000  0.0000  0.0000
 2011 009    72    68   3966 39.9942  0.8512 23.0310  6.8127  5.9553 2.33530  7.774 18.323 31.556 27.183  0.0000  0.0000  0.0000
 2011 010    73    69   4099 26.6513  0.7657 14.9193  4.9078  3.8816 1.34148  7.811 18.370 28.881 23.254  0.0000  0.0000  0.0000
 2011 011    74    70   4232 27.5354  0.8201 15.2400  5.0976  3.8507 1.30375  7.846 18.404 25.813 23.197  0.0000  0.0000  0.0000
 2011 012    75    71   4404 34.8059  0.8747 18.9133  6.4643  4.5785 1.83413  7.924 18.555 27.055 23.757  0.0000  0.0000  0.0000
 2011 013    76    72   4629 42.4146  0.8860 23.2241  7.8739  5.0373 2.48854  8.055 18.854 27.441 23.319  0.0000  0.0000  0.0000
 2011 014    77    73   4865 44.4479  0.9636 24.4209  8.3538  5.4400 2.60904  8.187 19.153 27.765 23.715  0.0000  0.0000  0.0000
 2011 015    78    74   5097 45.7077  1.0926 24.2673  8.4217  6.6995 2.58175  8.300 19.404 31.054 25.930  0.0000  0.0000  0.0000
 2011 016    79    75   5268 36.7876  0.0000 17.9071  6.1161  6.8283 1.98221  8.537 19.934 32.624 27.427  0.0000  0.0000  0.0000
 2011 017    80    76   5440 36.8110  0.6453 19.0574  6.7879  5.6448 1.47580  8.636 20.112 28.848 24.511  0.0000  0.0000  0.0000
 2011 018    81    77   5649 43.5741  1.2036 22.8252  8.4025  6.3821 2.00591  8.697 20.220 30.061 24.722  0.0000  0.0000  0.0000
 2011 019    82    78   5864 44.2713  1.0310 23.3752  8.0990  6.7502 1.96783  8.786 20.397 30.530 25.119  0.0000  0.0000  0.0000
 2011 020    83    79   6073 44.7606  1.3641 23.4115  8.5564  6.7341 2.02875  8.845 20.487 29.790 24.810  0.0000  0.0000  0.0000
 2011 021    84    80   6272 44.4213  1.2229 23.9760  8.6604  5.5402 2.11655  8.926 20.637 28.035 21.622  6.2090 20.1896 32.5043
 2011 022    85    81   6426 42.6544  1.5663 21.4811  8.5460  7.0934 1.28400  8.915 20.543 30.020 25.398  6.4843 20.4903 30.4828
 2011 023    86    82   6573 44.6175  1.6417 22.2559  9.0047  7.5670 1.44335  8.901 20.466 30.502 25.845  6.5171 20.4969 30.2714
 2011 024    87    83   6685 40.6343  1.8683 19.2590  8.0501  9.0411 0.73533  8.824 20.202 32.989 29.084  6.6841 20.4986 29.2255
 2011 025    88    84   6791 39.6891  1.7938 19.2128  8.4755  7.8882 0.25177  8.716 19.856 31.088 26.933  6.6595 20.4992 29.3787
 2011 026    89    85   6810 21.6332  1.3737 10.5608  3.8189  6.5612 0.07432  8.638 19.577 33.817 26.402  6.6330 20.4995 29.5443
 2011 027    90    86   6898 36.5060  1.7858 16.8179  8.2041  7.5122 0.00000  8.513 19.173 30.680 26.526  6.6199 20.4997 29.6259
 2011 028    91    87   7006 41.1436  1.8161 19.4485  9.1519  8.3178 0.15554  8.398 18.798 31.448 27.222  6.6291 20.4997 29.5683
 2011 029    92    88   7112 41.0610  1.7829 19.8871  9.2545  7.9918 0.00000  8.273 18.392 30.874 26.469  6.6194 20.4998 29.6290
 2011 030    93    89   7133 24.0236  1.7478 11.7673  5.1345  6.4727 0.00000  8.150 17.991 30.413 25.866  6.6011 20.4998 29.7432
 2011 031    94    90   7106 19.5794  1.7427  9.7426  4.0713  6.2738 0.00000  8.030 17.586 30.636 26.161  6.5931 20.4999 29.7935
 2011 032    95    91   7181 34.8328  1.6074 16.5196  8.7644  6.1170 0.00000  7.925 17.206 26.626 23.654  6.5400 20.4999 30.1250
 2011 033    96    92   7334 43.0576  0.0000 21.7330  9.5927  5.9974 0.92023  8.119 17.560 28.104 21.553  6.4829 20.4431 30.5388
 2011 034    97    93   7435 41.1558  1.6479 19.3597  9.9663  7.8741 0.00000  8.007 17.166 32.183 25.346  6.4838 20.4519 30.5245
 2011 035    98    94   7503 33.5885  1.6876 16.1185  8.3208  6.9304 0.00000  7.890 16.758 29.345 24.943  6.4790 20.4594 30.5470
 2011 036    99    95   7592 40.1187  1.7111 18.4240  9.8167  8.5179 0.00000  7.770 16.336 32.082 26.786  6.4977 20.4649 30.4245
 2011 037   100    96   7669 33.7087  1.6556 15.9922  8.6079  7.0663 0.00000  7.651 15.921 28.950 25.086  6.4933 20.4697 30.4473
 2011 038   101    97   7717 30.8598  1.3164 14.7623  7.8860  6.8887 0.09463  7.587 15.627 28.931 25.032  6.5187 20.4128 30.3453
 2011 039   102    98   7725 17.5212  1.3455  9.9521  3.9114  4.4359 0.01874  7.501 15.286 22.396 21.394  6.4998 20.3790 30.4971
 2011 040   103    99   7770 21.2163  1.2175 11.5029  5.1193  4.4816 0.04379  7.430 14.982 22.066 20.993  6.4862 20.3218 30.6396
 2011 041   104   100   7793 21.4979  1.2808 11.6306  5.0825  4.6992 0.02589  7.346 14.648 23.741 21.381  6.4708 20.2929 30.7644
 2011 042   105   101   7891 35.6337  1.0980 17.1583  9.2556  6.2056 0.10147  7.296 14.389 25.211 23.030  6.4748 20.2649 30.7679
 2011 043   106   102   7950 26.9962  1.1140 13.5451  6.8145  5.2120 0.06957  7.230 14.104 24.686 21.720  6.4696 20.2323 30.8324
 2011 044   107   103   8053 35.1601  0.8858 16.7549  9.4833  5.5615 0.12741  7.199 13.905 25.272 21.305  6.4707 20.1711 30.8870
 2011 045   108   104   8167 34.2898  0.8779 16.3486  9.4037  5.3518 0.11947  7.161 13.700 25.063 20.847  6.4699 20.1088 30.9547
 2011 046   109   105   8281 32.2065  0.6906 15.5540  9.4828  4.3862 0.13827  7.145 13.556 24.460 18.315  6.4748 19.9457 31.0871
 2011 047   110   106   8385 32.6183  0.9065 15.1759  9.0288  5.6344 0.11736  7.093 13.333 26.837 21.622  6.4762 19.9241 31.0996
 2011 048   111   107   8475 31.6324  1.0503 13.9769  8.3270  7.1223 0.11194  7.014 13.058 29.291 25.184  6.4921 19.9218 31.0026
 2011 049   112   108   8553 28.6204  1.0938 12.6317  7.4159  6.8435 0.09176  6.917 12.753 29.270 25.128  6.5036 19.9226 30.9302
 2011 050   113   109   8638 27.9644  0.9550 12.7543  7.6064  5.4293 0.09904  6.832 12.491 25.678 22.287  6.5048 19.9154 30.9297
 2011 051   114   110   8709 24.6522  0.9927 11.2502  6.5701  5.1957 0.08246  6.731 12.204 25.323 22.290  6.5052 19.9108 30.9318
 2011 052   115   111   8736 15.5831  1.2412  7.1747  3.4372  5.3111 0.01899  6.570 11.800 27.368 23.978  6.5043 19.9198 30.9284
 2011 053   116   112   8792 22.0441  1.0347  9.5733  5.6073  5.6908 0.07298  6.445 11.483 27.224 23.977  6.5088 19.9196 30.9005
 2011 054   117   113   8792 11.1727  1.1558  5.4436  2.3728  4.0549 0.00083  6.276 11.086 22.575 21.576  6.5038 19.9237 30.9277
 2011 055   118   114   8832 17.0786  0.9405  7.6702  4.3600  4.3096 0.05569  6.148 10.784 23.849 21.389  6.5030 19.9151 30.9409
 2011 056   119   115   8875 17.2664  0.9986  7.6354  4.1461  4.5796 0.03934  6.000 10.449 24.506 22.189  6.5013 19.9157 30.9510
 2011 057   120   116   8939 21.4156  0.8462  9.3621  5.7820  4.4582 0.06900  5.880 10.178 24.211 21.218  6.5005 19.9040 30.9678
 2011 058   121   117   8998 18.6607  0.7125  8.3745  5.3640  3.4791 0.07619  5.779  9.956 23.536 18.299  6.5017 19.8503 31.0138
 2011 059   122   118   9055 18.9367  0.7500  8.2197  5.3122  3.9477 0.07066  5.667  9.715 26.025 19.400  6.5018 19.8191 31.0449
 2011 060   123   119   9103 17.5368  0.7984  7.4285  4.7191  4.1445 0.06501  5.541  9.451 25.123 20.814  6.5020 19.8070 31.0557
 2011 061   124   120   9146 16.7966  0.8583  6.8901  4.3495  4.5548 0.04930  5.396  9.155 27.211 21.978  6.5018 19.8057 31.0580
 2011 062   125   121   9196 15.7668  0.0000  6.1436  2.3242  4.6924 0.58737  5.510  9.430 27.871 22.569  6.4504 19.9134 31.2718
 2011 063   126   122   8943 14.7750  0.6309  6.2186  2.4711  4.6607 0.12516  5.380  8.723 27.255 22.843  6.4042 20.0114 31.4622
 2011 064   127   123   8744 11.9375  0.4000  5.0932  2.0651  3.5188 0.13037  5.294  8.187 25.733 19.936  6.3668 20.0754 31.6321
 2011 065   128   124   8571  9.0245  0.7673  3.4242  1.5311  3.9333 0.00000  5.048  7.473 27.539 22.455  6.3507 20.1092 31.6989
 2011 066   129   125   8414  6.3391  0.6802  1.8929  0.8765  4.0557 0.00000  4.804  6.842 28.726 23.857  6.3507 20.1111 31.6968
 2011 067   130   126   8282  5.1261  0.6127  1.1126  0.3387  4.3168 0.00000  4.562  6.280 29.773 25.473  6.3511 20.1122 31.6932
 2011 068   131   127   8169  3.4072  0.5295  0.0490  0.0141  3.8756 0.00000  4.325  5.794 29.101 24.661  6.3512 20.1122 31.6931
 2011 069   132   128   8076  2.7023  0.4651  0.0000  0.0000  3.4589 0.00000  4.103  5.371 27.330 23.638  6.3512 20.1122 31.6931
 2011 070   133   129   7999  2.5547  0.4230  0.0000  0.0000  3.6476 0.00000  3.889  4.994 28.902 24.500  6.3512 20.1122 31.6931
 2011 071   134   130   7935  1.9623  0.3855  0.0000  0.0000  3.5321 0.00000  3.686  4.659 28.336 24.469  6.3512 20.1122 31.6931
 2011 072   135   131   7885  1.3790  0.2807  0.0000  0.0000  1.7640 0.00000  3.531  4.403 20.567 16.347  6.3512 20.1122 31.6931
 2011 073   136   132   7844  1.1070  0.2501  0.0000  0.0000  1.6462 0.00000  3.390  4.179 21.651 15.021  6.3512 20.1122 31.6931
 2011 074   137   133   7809  0.9459  0.2424  0.0000  0.0000  1.7637 0.00000  3.249  3.972 22.117 16.092  6.3512 20.1122 31.6931
