*PLANT C OUTPUT FILE

*DSSAT Cropping System Model Ver. 4.6.1.000 -release      OCT 19, 2016; 12:53:44
                                                                                
*RUN   1        : UYSB                      CRGRO046 UYSB0881    1              
 MODEL          : CRGRO046 - Soybean                                            
 EXPERIMENT     : UYSB0881 SN late to create DSS                                
 DATA PATH      :                                                               
 TREATMENT  1   : UYSB                      CRGRO046                            
  
@YEAR DOY   DAS   DAP   TWAD    PHAD    CMAD    CGRD    GRAD    MRAD    CHAD   CL%D   CS%D   TGNN   TGAV    GN%D    GL%D    GC%D
 1990 293     4     0      0  0.0000  0.0000  0.0000  0.0000  0.0000 0.00000  0.000  0.000 22.494 19.640  0.0000  0.0000  0.0000
 1990 294     5     1      0  0.0000  0.0000  0.0000  0.0000  0.0000 0.00000  0.000  0.000 22.528 19.031  0.0000  0.0000  0.0000
 1990 295     6     2      0  0.0000  0.0000  0.0000  0.0000  0.0000 0.00000  0.000  0.000 23.049 18.872  0.0000  0.0000  0.0000
 1990 296     7     3      0  0.0000  0.0000  0.0000  0.0000  0.0000 0.00000  0.000  0.000 23.736 19.272  0.0000  0.0000  0.0000
 1990 297     8     4      0  0.0000  0.0000  0.0000  0.0000  0.0000 0.00000  0.000  0.000 20.951 17.952  0.0000  0.0000  0.0000
 1990 298     9     5      0  0.0000  0.0000  0.0000  0.0000  0.0000 0.00000  0.000  0.000 22.789 18.181  0.0000  0.0000  0.0000
 1990 299    10     6      8  0.0000  0.0006  0.0004  0.0002  0.0000 0.00000  3.936  7.866 25.505 21.647  0.0000  0.0000  0.0000
 1990 300    11     7      8  0.1535  0.0006  0.0950  0.0328  0.0129 0.00000  3.879  7.760 26.637 22.599  0.0000  0.0000  0.0000
 1990 301    12     8      9  0.1003  0.0006  0.0623  0.0213  0.0089 0.00000  3.827  7.665 23.023 21.128  0.0000  0.0000  0.0000
 1990 302    13     9     10  0.1429  0.0007  0.0882  0.0296  0.0142 0.00000  3.770  7.570 26.377 23.874  0.0000  0.0000  0.0000
 1990 303    14    10     11  0.2570  0.0008  0.1623  0.0528  0.0213 0.00000  3.727  7.533 27.211 23.314  0.0000  0.0000  0.0000
 1990 304    15    11     13  0.2643  0.0007  0.1718  0.0538  0.0163 0.00000  3.698  7.524 22.125 19.479  0.0000  0.0000  0.0000
 1990 305    16    12     15  0.2820  0.0008  0.1829  0.0563  0.0192 0.00000  3.666  7.503 23.028 20.382  0.0000  0.0000  0.0000
 1990 306    17    13     17  0.2860  0.0009  0.1845  0.0563  0.0211 0.00000  3.633  7.474 25.166 20.624  0.0000  0.0000  0.0000
 1990 307    18    14     18  0.2155  0.0013  0.1335  0.0408  0.0241 0.00000  3.582  7.389 27.049 24.438  0.0000  0.0000  0.0000
 1990 308    19    15     20  0.2657  0.0008  0.1854  0.0574  0.0147 0.00000  3.635  7.359 20.564 16.485  0.0000  0.0000  0.0000
 1990 309    20    16     21  0.2546  0.0005  0.1424  0.0681  0.0102 0.00000  3.640  7.346 17.197 12.688  0.0000  0.0000  0.0000
 1990 310    21    17     23  0.2711  0.0008  0.1639  0.0650  0.0144 0.00000  3.641  7.323 19.573 15.494  0.0000  0.0000  0.0000
 1990 311    22    18     25  0.4402  0.0012  0.2750  0.0970  0.0265 0.00000  3.639  7.324 22.077 18.498  0.0000  0.0000  0.0000
 1990 312    23    19     26  0.1750  0.0009  0.1054  0.0419  0.0114 0.00000  3.632  7.284 17.393 14.851  0.0000  0.0000  0.0000
 1990 313    24    20     29  0.4205  0.0014  0.2653  0.0883  0.0272 0.00000  3.617  7.287 21.281 18.704  0.0000  0.0000  0.0000
 1990 314    25    21     32  0.5958  0.0016  0.3789  0.1235  0.0379 0.00000  3.606  7.320 23.234 19.260  0.0000  0.0000  0.0000
 1990 315    26    22     37  0.7291  0.0021  0.4492  0.1595  0.0533 0.00000  3.606  7.322 25.354 21.164  0.0000  0.0000  0.0000
 1990 316    27    23     40  0.5331  0.0021  0.3309  0.1154  0.0386 0.00000  3.592  7.304 23.140 19.416  0.0000  0.0000  0.0000
 1990 317    28    24     46  1.0052  0.0032  0.5997  0.2099  0.1095 0.00000  3.580  7.306 32.604 26.731  0.0000  0.0000  0.0000
 1990 318    29    25     51  0.8642  0.0039  0.5143  0.1801  0.1017 0.00000  3.549  7.275 31.297 26.927  0.0000  0.0000  0.0000
 1990 319    30    26     54  0.5977  0.0031  0.3649  0.1349  0.0497 0.00000  3.532  7.240 22.378 20.265  0.0000  0.0000  0.0000
 1990 320    31    27     60  0.9461  0.0025  0.6064  0.2109  0.0523 0.00000  3.569  7.263 20.724 17.178  0.0000  0.0000  0.0000
 1990 321    32    28     69  1.5418  0.0030  0.9639  0.3452  0.0847 0.00000  3.583  7.334 23.771 17.753  0.0000  0.0000  0.0000
 1990 322    33    29     80  1.8125  0.0051  1.1177  0.3825  0.1497 0.00000  3.577  7.357 27.874 23.145  0.0000  0.0000  0.0000
 1990 323    34    30     92  2.0218  0.0072  1.2072  0.4091  0.2293 0.00000  3.556  7.345 31.799 27.643  0.0000  0.0000  0.0000
 1990 324    35    31    100  1.4082  0.0077  0.8430  0.2936  0.1487 0.00000  3.528  7.288 27.050 24.578  0.0000  0.0000  0.0000
 1990 325    36    32    116  2.7366  0.0080  1.6882  0.5735  0.2312 0.00000  3.526  7.322 27.340 23.793  0.0000  0.0000  0.0000
 1990 326    37    33    134  2.9545  0.0083  1.8521  0.6294  0.2197 0.00000  3.522  7.355 26.259 21.708  0.0000  0.0000  0.0000
 1990 327    38    34    155  3.3294  0.0095  2.0963  0.7019  0.2424 0.00000  3.517  7.380 26.284 21.268  0.0000  0.0000  0.0000
 1990 328    39    35    174  3.3746  0.0123  2.0224  0.7847  0.2837 0.00000  3.541  7.339 27.075 22.810  0.0000  0.0000  0.0000
 1990 329    40    36    194  3.4814  0.0146  2.0701  0.8049  0.3213 0.00000  3.547  7.291 27.701 23.759  0.0000  0.0000  0.0000
 1990 330    41    37    220  4.3794  0.0131  2.7379  0.9929  0.2972 0.00000  3.597  7.284 23.662 20.401  0.0000  0.0000  0.0000
 1990 331    42    38    245  4.2341  0.0096  2.5880  1.0219  0.1976 0.00000  3.615  7.302 19.679 15.665  0.0000  0.0000  0.0000
 1990 332    43    39    278  5.4548  0.0123  3.3631  1.2725  0.2854 0.01391  3.673  7.448 22.485 16.894  0.0000  0.0000  0.0000
 1990 333    44    40    321  7.0495  0.0184  4.2724  1.6111  0.4538 0.03841  3.772  7.730 25.083 19.743  0.0000  0.0000  0.0000
 1990 334    45    41    352  5.3456  0.0240  3.1705  1.2143  0.4218 0.04541  3.842  7.959 25.192 20.927  0.0000  0.0000  0.0000
 1990 335    46    42    399  7.8736  0.0263  4.6809  1.8472  0.5524 0.09180  3.986  8.404 24.821 20.628  0.0000  0.0000  0.0000
 1990 336    47    43    423  4.2390  0.0271  2.4626  0.9980  0.3312 0.05987  4.043  8.604 22.233 18.864  0.0000  0.0000  0.0000
 1990 337    48    44    477  8.9766  0.0253  5.3681  2.1379  0.4744 0.15269  4.236  9.180 21.353 17.230  0.0000  0.0000  0.0000
 1990 338    49    45    545 11.4049  0.0364  6.6715  2.6607  0.7371 0.22209  4.453  9.830 25.575 19.374  0.0000  0.0000  0.0000
 1990 339    50    46    597  9.3378  0.0650  5.0814  2.1015  1.0945 0.20277  4.574 10.232 30.689 26.388  0.0000  0.0000  0.0000
 1990 340    51    47    658 10.2961  0.0589  6.5515  2.0540  0.8343 0.29591  4.807 10.828 24.514 21.611  0.0000  0.0000  0.0000
 1990 341    52    48    753 14.6507  0.0000  6.7692  1.6395  1.0204 3.90229  8.625 21.463 23.968 20.670  0.0000  0.0000  0.0000
 1990 342    53    49    835 14.0305  0.1121  7.5834  3.3448  0.8827 0.42677  8.350 20.848 23.261 18.601  0.0000  0.0000  0.0000
 1990 343    54    50    852  5.8699  0.1051  0.8980  2.1734  0.4666 0.05437  8.091 20.505 18.965 16.994  0.0000  0.0000  0.0000
 1990 344    55    51    870  6.3178  0.1130  3.7816  1.2901  0.5203 0.24588  8.228 20.427 19.019 17.729  0.0000  0.0000  0.0000
 1990 345    56    52    962 15.7168  0.1400  8.6116  3.5367  1.1024 0.60865  8.127 20.151 23.626 19.934  0.0000  0.0000  0.0000
 1990 346    57    53   1011  9.6072  0.1114  4.8697  2.3040  0.6202 0.36970  8.096 20.025 20.467 16.345  0.0000  0.0000  0.0000
 1990 347    58    54   1086 14.2374  0.1533  7.4945  3.2330  1.0234 0.60946  8.105 19.951 22.707 19.231  0.0000  0.0000  0.0000
 1990 348    59    55   1169 15.1636  0.1246  8.1430  3.5111  0.8372 0.69112  8.150 19.982 20.355 16.198  0.0000  0.0000  0.0000
 1990 349    60    56   1289 21.3659  0.1803 11.6373  4.8586  1.4668 1.04711  8.229 20.089 25.117 19.241  0.0000  0.0000  0.0000
 1990 350    61    57   1406 21.9302  0.2432 11.4492  5.0506  1.9362 1.09411  8.297 20.187 28.004 22.092  0.0000  0.0000  0.0000
 1990 351    62    58   1479 15.4700  0.3056  7.5872  3.5825  1.8430 0.75678  8.306 20.153 28.491 24.155  0.0000  0.0000  0.0000
 1990 352    63    59   1619 23.3425  0.2796 14.4319  4.3588  1.9386 1.51683  8.532 20.498 24.496 21.522  0.0000  0.0000  0.0000
 1990 353    64    60   1757 25.3770  0.2830 12.5468  6.0074  1.9036 1.38304  8.569 20.686 24.111 20.098  0.0000  0.0000  0.0000
 1990 354    65    61   1899 26.9107  0.3249 13.4804  6.1123  2.1567 1.55030  8.673 20.936 25.358 20.665  0.0000  0.0000  0.0000
 1990 355    66    62   2022 25.2872  0.4099 12.1109  5.9914  2.5706 1.43883  8.764 21.111 27.952 22.972  0.0000  0.0000  0.0000
 1990 356    67    63   2077 14.1584  0.4339  8.1817  2.5730  1.8167 0.92410  8.897 21.196 24.809 22.409  0.0000  0.0000  0.0000
 1990 357    68    64   2200 22.7187  0.4712 12.3129  4.4274  2.5114 1.51731  8.997 21.393 26.991 23.193  0.0000  0.0000  0.0000
 1990 358    69    65   2293 17.1945  0.4070 10.3800  2.9545  1.7242 1.20419  9.096 21.561 23.216 20.028  0.0000  0.0000  0.0000
 1990 359    70    66   2454 27.7680  0.4043 15.4686  5.2271  2.1780 2.07027  9.281 21.971 23.971 19.313  0.0000  0.0000  0.0000
 1990 360    71    67   2623 30.6262  0.5656 16.3196  5.7707  3.3470 2.28713  9.438 22.327 29.171 23.438  0.0000  0.0000  0.0000
 1990 361    72    68   2803 31.2541  0.6665 17.8038  5.5220  3.8083 2.55473  9.628 22.710 29.703 24.866  0.0000  0.0000  0.0000
 1990 362    73    69   2951 24.5309  0.4348 14.3836  4.7313  1.7913 1.97555  9.777 23.027 19.974 17.215  0.0000  0.0000  0.0000
 1990 363    74    70   3104 24.4544  0.4299 14.6544  4.4831  1.7862 2.11640  9.933 23.367 21.448 16.467  0.0000  0.0000  0.0000
 1990 364    75    71   3303 31.6180  0.0000 15.4814  4.5032  2.7594 5.84808 10.885 25.801 25.093 19.431  0.0000  0.0000  0.0000
 1990 365    76    72   3501 32.6914  0.0000 15.8455  4.5355  3.5832 5.70689 11.738 27.891 27.452 22.220  0.0000  0.0000  0.0000
 1991 001    77    73   3662 29.1900  0.1060 15.5070  4.5218  4.1055 2.58451 11.990 28.341 29.664 24.467  0.0000  0.0000  0.0000
 1991 002    78    74   3818 29.2979  0.6492 15.8855  4.6500  4.2216 2.51828 12.141 28.557 28.010 24.821  0.0000  0.0000  0.0000
 1991 003    79    75   3983 31.0291  0.0000 16.1226  4.8186  4.0203 3.15642 12.506 29.280 27.535 23.341  0.0000  0.0000  0.0000
 1991 004    80    76   4170 33.4424  1.1456 19.3580  5.9112  3.6603 2.91461 12.571 29.301 26.564 21.116  6.1921 20.0154 32.7840
 1991 005    81    77   4354 33.6092  1.2291 19.3604  6.0080  3.7347 2.86617 12.626 29.308 26.269 21.108  6.1919 20.0133 32.7870
 1991 006    82    78   4528 33.7073  1.3327 18.9766  6.0827  4.0909 2.81684 12.670 29.297 27.891 21.726  6.2027 20.1182 32.6149
 1991 007    83    79   4670 32.9792  1.6211 17.3382  5.9987  5.1423 2.58585 12.675 29.197 30.344 24.860  6.3146 20.2942 31.7394
 1991 008    84    80   4812 33.1477  1.8091 17.4056  5.8399  6.0144 2.42248 12.657 29.045 32.282 26.905  6.4487 20.3827 30.8127
 1991 009    85    81   4854 16.6742  1.0413  9.0798  3.2174  3.4377 0.17910 12.635 28.861 23.896 22.820  6.3802 20.4083 31.2154
 1991 010    86    82   4961 31.9564  1.8512 16.5337  6.3326  5.2657 1.74338 12.587 28.639 29.235 25.077  6.4073 20.4376 31.0169
 1991 011    87    83   5059 30.2815  1.6676 15.4543  6.4733  4.1295 1.46730 12.547 28.440 26.192 21.927  6.3470 20.3849 31.4465
 1991 012    88    84   5203 32.5476  1.5142 16.5052  7.2226  3.6494 1.71501 12.545 28.331 24.586 19.783  6.2974 20.0893 32.0516
 1991 013    89    85   5274 26.0321  1.5953 13.8868  5.7049  3.4878 0.75377 12.471 28.055 25.088 20.035  6.2702 19.9594 32.3517
 1991 014    90    86   5396 32.7522  1.7428 16.9301  7.1308  4.2685 1.30153 12.417 27.831 26.180 21.378  6.2540 19.9943 32.4182
 1991 015    91    87   5499 32.3423  1.8636 16.1428  7.0119  4.9979 1.24066 12.346 27.571 29.306 22.998  6.2604 20.0880 32.2848
 1991 016    92    88   5591 23.4996  1.4904 13.0186  5.6252  2.7890 0.00000 12.235 27.204 21.205 17.801  6.2555 19.6839 32.7189
 1991 017    93    89   5683 26.2348  1.3287 13.8091  6.0899  2.6073 0.99955 12.207 27.054 22.038 15.838  6.2724 19.1909 33.1069
 1991 018    94    90   5800 32.2480  1.6923 17.4614  7.0764  3.8754 1.15756 12.151 26.839 25.415 19.431  6.2588 19.1858 33.1964
 1991 019    95    91   5907 30.7199  1.8317 15.9189  6.9674  4.3323 0.77818 12.056 26.525 27.160 20.781  6.2480 19.2868 33.1633
 1991 020    96    92   5982 27.2106  1.9100 14.3497  6.0107  4.7029 0.17836 11.913 26.084 29.370 21.989  6.2450 19.4184 33.0504
 1991 021    97    93   5977 16.9859  1.9399  9.8707  3.6297  3.6415 0.00000 11.755 25.600 23.357 21.422  6.2388 19.5198 32.9880
 1991 022    98    94   6025 31.4956  1.9816 15.8105  7.3266  4.8521 0.24719 11.605 25.143 27.051 22.250  6.2387 19.6334 32.8746
 1991 023    99    95   6068 28.5551  2.0333 14.8398  6.4057  4.9895 0.00000 11.428 24.615 27.499 23.092  6.2464 19.7521 32.7081
 1991 024   100    96   6063 14.0797  1.8856  8.0570  2.9480  3.5234 0.00000 11.266 24.119 23.207 21.416  6.2400 19.8049 32.6953
 1991 025   101    97   6128 29.0686  1.8779 14.2253  7.3531  4.4703 0.00000 11.108 23.618 25.224 21.678  6.2362 19.8579 32.6660
 1991 026   102    98   6202 29.4447  1.7471 15.2629  7.3267  4.0559 0.00000 10.962 23.147 24.659 20.182  6.2292 19.8264 32.7412
 1991 027   103    99   6266 28.7867  1.6535 15.1835  7.3134  3.7029 0.00000 10.822 22.696 23.699 19.079  6.2245 19.7271 32.8696
 1991 028   104   100   6316 29.3750  1.7987 15.0639  7.2670  4.5658 0.00000 10.661 22.196 26.686 21.279  6.2215 19.7651 32.8505
 1991 029   105   101   6337 18.7616  1.7364 10.1886  4.6419  3.6978 0.00000 10.504 21.706 23.923 20.664  6.2171 19.7721 32.8711
 1991 030   106   102   6363 24.1539  1.6226 12.7046  6.3405  3.5536 0.00000 10.360 21.242 21.857 19.458  6.2132 19.7085 32.9593
 1991 031   107   103   6379 20.0027  1.6442 10.8964  5.0983  3.6055 0.00000 10.211 20.760 22.641 20.206  6.2094 19.6977 32.9936
 1991 032   108   104   6409 28.2842  1.6830 14.2020  7.1739  4.5277 0.00000 10.055 20.256 25.975 21.357  6.2084 19.7376 32.9598
 1991 033   109   105   6456 27.0987  1.6715 13.6619  6.8727  4.8562 0.00000  9.892 19.741 27.916 22.153  6.2108 19.7944 32.8882
 1991 034   110   106   6495 26.5046  1.7532 12.8380  6.5665  5.8419 0.00000  9.713 19.188 30.166 24.797  6.2320 19.8596 32.6904
 1991 035   111   107   6538 26.8808  1.7097 12.9858  6.7880  5.7977 0.00000  9.534 18.636 29.617 24.642  6.2495 19.9174 32.5231
 1991 036   112   108   6591 26.4066  1.6732 12.7359  6.8204  5.6398 0.00000  9.352 18.082 28.412 24.440  6.2638 19.9697 32.3816
 1991 037   113   109   6620 21.8305  1.3905 10.9051  5.5918  4.8940 0.06044  9.224 17.643 26.651 23.288  6.2835 19.9770 32.2509
 1991 038   114   110   6684 25.4282  1.2631 12.4029  6.8397  4.9478 0.07304  9.111 17.243 27.371 22.577  6.2995 19.9754 32.1529
 1991 039   115   111   6731 21.9055  1.3490 10.7913  5.5422  5.0920 0.04972  8.973 16.791 27.853 23.525  6.3128 19.9866 32.0583
 1991 040   116   112   6763 19.6687  1.3584  9.7002  4.6943  5.1405 0.04200  8.824 16.320 27.992 24.023  6.3253 19.9967 31.9704
 1991 041   117   113   6821 23.3316  1.1906 11.0223  6.0284  5.3075 0.06754  8.699 15.913 29.190 23.504  6.3391 19.9984 31.8820
 1991 042   118   114   6865 20.4796  1.2837  9.6716  5.0176  5.4950 0.05313  8.547 15.453 28.401 24.969  6.3553 20.0023 31.7772
 1991 043   119   115   6930 21.5265  1.0126 10.4807  5.8326  4.0470 0.07843  8.439 15.103 24.240 20.916  6.3611 19.9690 31.7743
 1991 044   120   116   6986 17.3998  0.8856  9.0020  5.0760  2.8206 0.06417  8.338 14.789 22.202 17.092  6.3689 19.8305 31.8641
 1991 045   121   117   7035 15.1119  0.8133  8.0508  4.5996  2.2885 0.06419  8.243 14.498 19.425 15.602  6.3812 19.6538 31.9634
 1991 046   122   118   7087 15.7022  0.8299  8.2599  4.8109  2.4086 0.05541  8.136 14.191 21.197 15.623  6.3913 19.4899 32.0647
 1991 047   123   119   7148 18.4302  0.8289  9.1425  5.4120  3.0110 0.06849  8.028 13.887 24.393 17.141  6.3976 19.3836 32.1317
 1991 048   124   120   7202 19.3092  0.9633  8.8312  4.9801  4.3921 0.06667  7.887 13.520 28.676 21.890  6.4013 19.3943 32.0974
 1991 049   125   121   7246 17.2694  1.0283  7.9655  4.4350  4.2529 0.04783  7.719 13.107 27.382 22.312  6.4034 19.4102 32.0687
 1991 050   126   122   7294 17.3090  0.9122  7.8460  4.5316  4.0503 0.06185  7.570 12.745 28.071 21.324  6.4061 19.4124 32.0497
 1991 051   127   123   7323 14.0056  1.1601  6.4105  2.5098  4.7309 0.00000  7.341 12.233 29.902 24.442  6.3585 19.5365 32.2227
 1991 052   128   124   7095  7.4729  1.1001  3.5112  1.1641  3.8504 0.00000  7.021 11.252 26.714 23.431  6.3580 19.5489 32.2135
 1991 053   129   125   6945 11.7058  0.8803  5.3483  2.4947  3.5073 0.00000  6.726 10.412 26.568 21.538  6.3401 19.5916 32.2826
 1991 054   130   126   6830  9.0508  0.6736  4.5171  1.8127  2.3402 0.00000  6.472  9.717 22.521 17.635  6.3074 19.6267 32.4519
 1991 055   131   127   6726  8.0838  0.6557  3.4425  1.6943  3.1636 0.00000  6.196  9.062 27.317 21.505  6.3062 19.6330 32.4533
 1991 056   132   128   6635  6.2160  0.5930  2.2148  0.8725  3.6134 0.00000  5.920  8.468 31.036 23.657  6.3064 19.6397 32.4451
 1991 057   133   129   6554  4.6336  0.5403  0.9440  0.2708  4.0029 0.00259  5.639  7.932 32.924 26.010  6.3073 19.6423 32.4370
 1991 058   134   130   6481  2.5988  0.5154  0.0000  0.0000  4.0096 0.00000  5.338  7.426 32.260 27.307  6.3073 19.6423 32.4370
 1991 059   135   131   6422  1.5503  0.4356  0.0000  0.0000  2.7382 0.00000  5.071  6.993 24.351 22.855  6.3073 19.6423 32.4370
 1991 060   136   132   6372  1.5690  0.4112  0.0000  0.0000  2.9816 0.00000  4.809  6.590 26.790 24.013  6.3073 19.6423 32.4370
 1991 061   137   133   6331  1.1967  0.3652  0.0000  0.0000  2.6626 0.00000  4.569  6.232 25.967 22.692  6.3073 19.6423 32.4370
 1991 062   138   134   6296  1.5131  0.3452  0.0000  0.0000  3.1663 0.00000  4.335  5.899 30.506 24.598  6.3073 19.6423 32.4370
 1991 063   139   135   6266  1.0455  0.3111  0.0000  0.0000  2.5322 0.00000  4.120  5.599 25.953 22.217  6.3073 19.6423 32.4370

*DSSAT Cropping System Model Ver. 4.6.1.000 -release      OCT 19, 2016; 12:53:44
                                                                                
*RUN   2        : UYSB                      CRGRO046 UYSB0881    1              
 MODEL          : CRGRO046 - Soybean                                            
 EXPERIMENT     : UYSB0881 SN late to create DSS                                
 DATA PATH      :                                                               
 TREATMENT  1   : UYSB                      CRGRO046                            
  
@YEAR DOY   DAS   DAP   TWAD    PHAD    CMAD    CGRD    GRAD    MRAD    CHAD   CL%D   CS%D   TGNN   TGAV    GN%D    GL%D    GC%D
 1991 293     4     0      0  0.0000  0.0000  0.0000  0.0000  0.0000 0.00000  0.000  0.000 23.031 18.607  0.0000  0.0000  0.0000
 1991 294     5     1      0  0.0000  0.0000  0.0000  0.0000  0.0000 0.00000  0.000  0.000 27.287 21.791  0.0000  0.0000  0.0000
 1991 295     6     2      0  0.0000  0.0000  0.0000  0.0000  0.0000 0.00000  0.000  0.000 28.388 24.783  0.0000  0.0000  0.0000
 1991 296     7     3      0  0.0000  0.0000  0.0000  0.0000  0.0000 0.00000  0.000  0.000 18.131 15.810  0.0000  0.0000  0.0000
 1991 297     8     4      0  0.0000  0.0000  0.0000  0.0000  0.0000 0.00000  0.000  0.000 16.330 13.758  0.0000  0.0000  0.0000
 1991 298     9     5      0  0.0000  0.0000  0.0000  0.0000  0.0000 0.00000  0.000  0.000 20.426 18.318  0.0000  0.0000  0.0000
 1991 299    10     6      0  0.0000  0.0000  0.0000  0.0000  0.0000 0.00000  0.000  0.000 23.630 20.558  0.0000  0.0000  0.0000
 1991 300    11     7      8  0.0000  0.0005  0.0003  0.0001  0.0000 0.00000  3.948  7.891 22.034 18.961  0.0000  0.0000  0.0000
 1991 301    12     8      8  0.0629  0.0004  0.0385  0.0141  0.0048 0.00000  3.907  7.806 19.337 17.479  0.0000  0.0000  0.0000
 1991 302    13     9      8  0.0571  0.0003  0.0348  0.0134  0.0040 0.00000  3.874  7.736 16.566 15.994  0.0000  0.0000  0.0000
 1991 303    14    10      9  0.0658  0.0004  0.0406  0.0154  0.0045 0.00000  3.842  7.671 17.504 16.289  0.0000  0.0000  0.0000
 1991 304    15    11      9  0.0824  0.0004  0.0516  0.0182  0.0059 0.00000  3.806  7.606 19.814 17.633  0.0000  0.0000  0.0000
 1991 305    16    12     10  0.1675  0.0005  0.1081  0.0352  0.0097 0.00000  3.775  7.580 21.054 17.979  0.0000  0.0000  0.0000
 1991 306    17    13     11  0.2124  0.0005  0.1380  0.0443  0.0111 0.00000  3.751  7.571 20.842 17.229  0.0000  0.0000  0.0000
 1991 307    18    14     13  0.2126  0.0006  0.1382  0.0432  0.0122 0.00000  3.724  7.552 21.361 17.783  0.0000  0.0000  0.0000
 1991 308    19    15     15  0.2878  0.0007  0.1877  0.0574  0.0168 0.00000  3.699  7.545 23.120 18.433  0.0000  0.0000  0.0000
 1991 309    20    16     16  0.2839  0.0009  0.1843  0.0559  0.0190 0.00000  3.668  7.520 24.083 19.538  0.0000  0.0000  0.0000
 1991 310    21    17     18  0.2045  0.0010  0.1311  0.0404  0.0167 0.00000  3.628  7.463 23.144 20.246  0.0000  0.0000  0.0000
 1991 311    22    18     19  0.2873  0.0009  0.1762  0.0686  0.0179 0.00000  3.636  7.419 21.505 18.248  0.0000  0.0000  0.0000
 1991 312    23    19     21  0.2880  0.0009  0.1761  0.0700  0.0163 0.00000  3.646  7.383 20.123 16.902  0.0000  0.0000  0.0000
 1991 313    24    20     23  0.4054  0.0009  0.2533  0.0937  0.0212 0.00000  3.657  7.381 21.820 16.558  0.0000  0.0000  0.0000
 1991 314    25    21     26  0.4089  0.0012  0.2555  0.0902  0.0263 0.00000  3.648  7.367 23.668 18.513  0.0000  0.0000  0.0000
 1991 315    26    22     28  0.3186  0.0009  0.1989  0.0755  0.0153 0.00000  3.651  7.356 17.748 14.561  0.0000  0.0000  0.0000
 1991 316    27    23     30  0.3744  0.0007  0.2384  0.0872  0.0148 0.00000  3.658  7.373 17.232 12.720  0.0000  0.0000  0.0000
 1991 317    28    24     33  0.3925  0.0011  0.2498  0.0886  0.0194 0.00000  3.653  7.376 19.236 14.724  0.0000  0.0000  0.0000
 1991 318    29    25     34  0.2498  0.0013  0.1519  0.0596  0.0174 0.00000  3.638  7.333 18.811 16.017  0.0000  0.0000  0.0000
 1991 319    30    26     36  0.4171  0.0017  0.2566  0.0979  0.0284 0.00000  3.625  7.305 21.058 18.121  0.0000  0.0000  0.0000
 1991 320    31    27     40  0.6534  0.0018  0.4102  0.1502  0.0378 0.00000  3.622  7.322 21.658 17.682  0.0000  0.0000  0.0000
 1991 321    32    28     45  0.7448  0.0019  0.4712  0.1693  0.0410 0.00000  3.620  7.347 21.378 17.187  0.0000  0.0000  0.0000
 1991 322    33    29     51  1.0329  0.0027  0.6514  0.2246  0.0703 0.00000  3.608  7.377 25.105 20.197  0.0000  0.0000  0.0000
 1991 323    34    30     58  1.0372  0.0025  0.6634  0.2291  0.0561 0.00000  3.604  7.404 20.265 17.578  0.0000  0.0000  0.0000
 1991 324    35    31     65  1.1743  0.0032  0.7415  0.2615  0.0721 0.00000  3.600  7.413 22.830 18.746  0.0000  0.0000  0.0000
 1991 325    36    32     74  1.5253  0.0042  0.9433  0.3460  0.1085 0.00000  3.604  7.411 26.388 20.619  0.0000  0.0000  0.0000
 1991 326    37    33     84  1.7168  0.0054  1.0429  0.3763  0.1577 0.00000  3.595  7.398 30.627 23.639  0.0000  0.0000  0.0000
 1991 327    38    34     95  1.8256  0.0072  1.0865  0.3847  0.2103 0.00000  3.571  7.365 32.915 26.931  0.0000  0.0000  0.0000
 1991 328    39    35     99  0.7399  0.0043  0.4587  0.1683  0.0528 0.00000  3.555  7.328 18.376 16.477  0.0000  0.0000  0.0000
 1991 329    40    36    102  0.7796  0.0045  0.4791  0.1817  0.0555 0.00000  3.543  7.291 18.173 16.524  0.0000  0.0000  0.0000
 1991 330    41    37    109  1.2327  0.0046  0.7950  0.2692  0.0721 0.00000  3.554  7.284 19.166 16.442  0.0000  0.0000  0.0000
 1991 331    42    38    122  2.0844  0.0054  1.3504  0.4360  0.1187 0.00000  3.577  7.317 22.367 17.528  0.0000  0.0000  0.0000
 1991 332    43    39    137  2.5524  0.0087  1.5602  0.5374  0.2068 0.00000  3.556  7.322 27.088 22.035  0.0000  0.0000  0.0000
 1991 333    44    40    150  2.2994  0.0102  1.4369  0.4653  0.1983 0.00000  3.529  7.304 24.707 22.341  0.0000  0.0000  0.0000
 1991 334    45    41    170  3.5327  0.0117  2.1146  0.7970  0.2915 0.00000  3.551  7.283 26.754 22.919  0.0000  0.0000  0.0000
 1991 335    46    42    193  3.7833  0.0120  2.2895  0.8520  0.2830 0.00000  3.567  7.273 26.019 21.287  0.0000  0.0000  0.0000
 1991 336    47    43    221  4.8135  0.0145  2.8939  1.0717  0.3907 0.00000  3.583  7.268 28.052 22.604  0.0000  0.0000  0.0000
 1991 337    48    44    244  3.9087  0.0174  2.3352  0.8792  0.3472 0.00000  3.572  7.228 26.222 22.816  0.0000  0.0000  0.0000
 1991 338    49    45    282  6.5205  0.0196  3.9083  1.4794  0.5732 0.00000  3.586  7.233 29.430 23.910  0.0000  0.0000  0.0000
 1991 339    50    46    309  5.0500  0.0225  3.1166  1.1069  0.4474 0.00000  3.606  7.197 26.092 22.866  0.0000  0.0000  0.0000
 1991 340    51    47    357  8.5447  0.0272  4.8957  1.9578  0.8211 0.01047  3.621  7.270 30.071 25.446  0.0000  0.0000  0.0000
 1991 341    52    48    399  7.2564  0.0300  4.2880  1.6182  0.6467 0.03429  3.669  7.442 26.621 23.467  0.0000  0.0000  0.0000
 1991 342    53    49    464 10.9743  0.0344  6.4778  2.4298  0.9387 0.08968  3.806  7.862 28.181 23.844  0.0000  0.0000  0.0000
 1991 343    54    50    494  5.7307  0.0352  3.5204  1.2309  0.4901 0.06705  3.891  8.069 22.279 20.881  0.0000  0.0000  0.0000
 1991 344    55    51    574 12.6211  0.0000  7.3139  2.0637  1.0137 1.12857  5.402 12.431 25.905 22.966  0.0000  0.0000  0.0000
 1991 345    56    52    637 12.1465  0.0703  5.6388  3.1658  1.0017 0.17391  5.293 12.360 26.226 22.534  0.0000  0.0000  0.0000
 1991 346    57    53    678  7.6579  0.0664  3.8755  1.8791  0.6344 0.13957  5.265 12.344 22.840 20.260  0.0000  0.0000  0.0000
 1991 347    58    54    784 17.6080  0.0791 11.0566  3.5598  1.3222 0.45873  5.503 12.754 26.628 21.862  0.0000  0.0000  0.0000
 1991 348    59    55    827  8.1142  0.0795  4.8660  1.6851  0.6589 0.22632  5.562 12.865 21.207 19.344  0.0000  0.0000  0.0000
 1991 349    60    56    876  8.9230  0.0903  5.3370  1.8204  0.7666 0.27692  5.639 13.027 22.595 20.158  0.0000  0.0000  0.0000
 1991 350    61    57    983 17.2307  0.1114 10.8408  3.0373  1.3991 0.65462  5.875 13.595 25.596 22.085  0.0000  0.0000  0.0000
 1991 351    62    58   1123 21.6890  0.1383 13.8818  3.9794  1.8194 0.88595  6.132 14.223 26.483 22.936  0.0000  0.0000  0.0000
 1991 352    63    59   1233 22.6609  0.1759  8.7453  5.9301  2.2325 0.62048  6.045 14.411 29.331 24.566  0.0000  0.0000  0.0000
 1991 353    64    60   1353 21.8086  0.1937 13.6034  3.8663  2.2290 1.04058  6.427 15.048 29.379 24.470  0.0000  0.0000  0.0000
 1991 354    65    61   1508 26.1567  0.2258 15.3624  4.9209  2.6161 1.26282  6.681 15.661 29.272 24.614  0.0000  0.0000  0.0000
 1991 355    66    62   1616 25.0968  0.2798  9.1762  6.4155  2.9501 0.81254  6.622 15.806 30.738 26.260  0.0000  0.0000  0.0000
 1991 356    67    63   1672 16.0930  0.2810  6.7700  3.8444  1.9138 0.59958  6.717 15.940 26.196 23.760  0.0000  0.0000  0.0000
 1991 357    68    64   1818 26.5587  0.0000 15.3890  4.3397  2.8542 1.75434  7.262 17.111 28.604 24.842  0.0000  0.0000  0.0000
 1991 358    69    65   1977 29.1617  0.3722 14.6966  6.1543  3.3352 1.52547  7.367 17.521 29.444 25.789  0.0000  0.0000  0.0000
 1991 359    70    66   2108 26.3839  0.3343 12.7715  5.9985  2.3424 1.31674  7.500 17.868 24.509 21.571  0.0000  0.0000  0.0000
 1991 360    71    67   2238 24.3957  0.2781 14.0300  5.0213  1.7179 1.51958  7.772 18.374 21.463 18.130  0.0000  0.0000  0.0000
 1991 361    72    68   2414 30.0854  0.3260 16.9697  6.1289  2.1816 1.94142  8.000 18.926 23.496 18.910  0.0000  0.0000  0.0000
 1991 362    73    69   2607 32.6980  0.4220 18.8235  6.3520  2.7646 2.19462  8.235 19.468 25.042 20.849  0.0000  0.0000  0.0000
 1991 363    74    70   2817 34.3254  0.5041 20.5363  6.1928  3.2888 2.52355  8.476 20.022 27.341 22.073  0.0000  0.0000  0.0000
 1991 364    75    71   2988 30.8524  0.6222 17.3361  5.7439  3.6589 2.07559  8.632 20.355 28.667 24.008  0.0000  0.0000  0.0000
 1991 365    76    72   3130 28.1421  0.7561 15.0220  5.0775  4.4293 1.81180  8.735 20.547 31.412 27.147  0.0000  0.0000  0.0000
 1992 001    77    73   3216 19.0692  0.7368 10.6577  3.4823  3.0480 0.97132  8.758 20.521 26.972 24.212  0.0000  0.0000  0.0000
 1992 002    78    74   3360 28.1534  0.7391 15.3803  5.2888  3.6368 1.76979  8.870 20.735 27.330 23.925  0.0000  0.0000  0.0000
 1992 003    79    75   3541 30.6659  0.5433 17.9403  5.7737  2.5482 2.07567  9.033 21.107 21.996 18.770  0.0000  0.0000  0.0000
 1992 004    80    76   3765 36.8476  0.0000 16.4946  5.1103  3.5138 7.66552 10.298 24.443 25.206 20.941  0.0000  0.0000  0.0000
 1992 005    81    77   3977 36.5244  0.8375 21.0790  6.7148  3.7388 2.69797 10.427 24.673 26.782 21.118  0.0000  0.0000  0.0000
 1992 006    82    78   4136 30.2104  0.9218 16.7920  5.7108  3.5248 1.94580 10.492 24.743 25.656 21.534  0.0000  0.0000  0.0000
 1992 007    83    79   4313 33.9719  1.0280 18.4827  6.3645  4.2595 2.30144 10.574 24.856 27.759 22.848  0.0000  0.0000  0.0000
 1992 008    84    80   4482 35.7687  1.2741 19.2473  6.4281  5.3907 2.38826 10.644 24.925 29.533 25.626  0.0000  0.0000  0.0000
 1992 009    85    81   4619 33.0606  1.3475 17.4409  6.1229  5.2833 1.89699 10.673 24.895 29.518 25.575  6.5088 20.5000 30.3198
 1992 010    86    82   4735 31.0680  1.4258 16.0376  6.0938  5.1701 1.30164 10.640 24.732 28.772 25.510  6.5047 20.5000 30.3458
 1992 011    87    83   4914 37.7739  1.1684 21.0863  7.3812  4.1366 2.28265 10.730 24.860 25.365 21.028  6.3311 20.2140 31.7165
 1992 012    88    84   5062 35.1346  1.2442 19.1847  7.1456  4.1762 1.59838 10.753 24.834 26.337 21.140  6.2706 20.1312 32.1774
 1992 013    89    85   5210 37.6883  1.3548 19.5698  8.0424  4.5868 1.60382 10.774 24.793 26.319 21.875  6.2509 20.1819 32.2500
 1992 014    90    86   5328 32.3157  1.4040 16.6204  7.1167  4.3432 0.77277 10.726 24.579 26.302 21.822  6.2398 20.2038 32.2977
 1992 015    91    87   5421 25.4877  0.9225 13.9206  6.0410  2.2196 0.38465 10.702 24.426 18.867 15.355  6.2874 19.0148 33.1888
 1992 016    92    88   5541 29.3489  1.0189 15.3032  6.8292  2.6815 0.85692 10.707 24.350 21.424 16.227  6.3004 18.4357 33.6865
 1992 017    93    89   5703 36.8337  1.3541 19.4501  7.8518  4.1567 1.68581 10.743 24.360 25.411 19.928  6.2744 18.6499 33.6348
 1992 018    94    90   5837 36.2690  1.5463 19.0271  7.7023  4.9752 1.19997 10.718 24.220 27.988 21.932  6.2647 18.9553 33.3905
 1992 019    95    91   5914 31.6501  1.7071 16.3601  6.9439  5.3793 0.30377 10.607 23.850 29.116 23.669  6.2784 19.2362 33.0237
 1992 020    96    92   6007 35.9016  1.8199 17.4263  7.7805  6.5856 0.64143 10.512 23.525 31.198 25.716  6.3214 19.4596 32.5319
 1992 021    97    93   6086 33.1573  1.8447 16.7948  7.4745  5.9935 0.00000 10.359 23.046 28.885 24.944  6.3446 19.6435 32.2026
 1992 022    98    94   6125 33.8993  1.7701 17.0412  7.8431  5.6976 0.00000 10.213 22.582 28.317 23.946  6.3480 19.7862 32.0388
 1992 023    99    95   6228 33.7418  1.6242 16.9373  8.1881  4.9068 0.00000 10.081 22.151 26.313 21.942  6.3264 19.8716 32.0887
 1992 024   100    96   6297 27.8117  1.6603 14.2699  6.5385  4.7568 0.00000  9.944 21.708 26.289 22.384  6.3139 19.9503 32.0879
 1992 025   101    97   6324 24.0491  1.8035 12.3795  5.4329  5.2925 0.00000  9.793 21.221 27.230 24.472  6.3278 20.0288 31.9225
 1992 026   102    98   6369 30.7708  1.7923 14.9272  7.2551  5.9436 0.00000  9.641 20.728 27.988 24.872  6.3440 20.0931 31.7568
 1992 027   103    99   6359 29.1201  1.7133 14.6754  6.7699  5.4913 0.00000  9.495 20.249 27.229 23.970  6.3471 20.1475 31.6833
 1992 028   104   100   6383 25.7755  1.7395 12.6602  5.8915  5.8700 0.00000  9.342 19.747 28.726 25.467  6.3683 20.1966 31.5015
 1992 029   105   101   6400 24.4061  1.7076 12.1211  5.4999  5.7433 0.00000  9.191 19.245 28.205 25.412  6.3850 20.2368 31.3568
 1992 030   106   102   6379 16.4485  1.6348  8.7858  3.5554  5.1929 0.01102  9.052 18.758 28.001 25.459  6.4033 20.2558 31.2238
 1992 031   107   103   6371 24.8617  1.6476 12.0745  5.7650  6.2689 0.00000  8.908 18.249 29.744 26.558  6.4258 20.2843 31.0544
 1992 032   108   104   6411 25.5449  1.5603 12.4199  6.1170  6.1007 0.00000  8.769 17.750 29.585 26.005  6.4400 20.3097 30.9401
 1992 033   109   105   6470 28.3202  1.5603 13.6110  6.5564  6.6744 0.00000  8.626 17.237 29.679 26.851  6.4601 20.3307 30.7940
 1992 034   110   106   6497 20.6262  1.3208 10.6821  4.7516  5.0789 0.03322  8.519 16.813 26.446 24.299  6.4646 20.3245 30.7715
 1992 035   111   107   6550 25.4115  1.2084 12.6260  6.2096  5.3184 0.05207  8.428 16.426 26.930 23.995  6.4702 20.3111 30.7504
 1992 036   112   108   6621 26.5828  1.2312 12.8961  6.6970  5.8555 0.04706  8.325 16.017 28.012 25.042  6.4814 20.3030 30.6885
 1992 037   113   109   6696 26.6701  1.1533 12.7931  6.8931  5.7979 0.05673  8.230 15.632 28.137 24.738  6.4909 20.2914 30.6406
 1992 038   114   110   6769 26.7374  1.0934 12.3426  6.8143  6.3701 0.07449  8.142 15.270 29.817 25.881  6.5103 20.2730 30.5379
 1992 039   115   111   6831 25.1185  1.1451 11.3428  6.1646  6.8333 0.05666  8.031 14.869 31.424 27.024  6.5296 20.2632 30.4269
 1992 040   116   112   6854 15.7577  1.2553  7.9900  3.3995  5.0713 0.00000  7.872 14.383 27.740 24.629  6.5252 20.2730 30.4442
 1992 041   117   113   6868 12.2750  1.1476  6.6242  2.4793  4.0793 0.00000  7.722 13.929 24.728 22.583  6.5163 20.2777 30.4952
 1992 042   118   114   6899 16.0809  1.0719  8.1223  3.8000  4.2756 0.01387  7.579 13.504 25.080 22.577  6.5087 20.2779 30.5428
 1992 043   119   115   6970 23.7357  0.9185 11.0742  6.1997  4.8843 0.05763  7.469 13.158 25.930 23.071  6.5076 20.2675 30.5604
 1992 044   120   116   6992 14.5667  1.1240  6.9840  2.8997  4.8799 0.00153  7.291 12.686 27.965 24.713  6.5055 20.2742 30.5666
 1992 045   121   117   7003 10.4075  1.0116  5.4112  1.9122  3.6483 0.00000  7.123 12.251 23.608 21.929  6.4988 20.2742 30.6082
 1992 046   122   118   7057 20.5683  0.9894  9.1965  5.0282  5.3496 0.02279  6.958 11.830 28.609 25.000  6.5008 20.2755 30.5944
 1992 047   123   119   7113 21.0411  0.8696  9.0510  5.3637  5.5017 0.05136  6.817 11.472 29.270 25.341  6.5081 20.2677 30.5567
 1992 048   124   120   7168 20.5360  0.7702  8.6951  5.2500  5.2545 0.07226  6.697 11.165 28.569 24.891  6.5166 20.2539 30.5174
 1992 049   125   121   7218 20.0491  0.8399  8.2487  5.0220  5.7273 0.04838  6.544 10.806 30.636 26.172  6.5248 20.2475 30.4724
 1992 050   126   122   7260 18.8802  0.8569  7.3292  4.4652  6.3266 0.04610  6.378 10.432 31.829 28.080  6.5367 20.2412 30.4046
 1992 051   127   123   7299 18.2802  0.8303  6.8889  4.2524  6.4093 0.04676  6.209 10.064 32.293 28.474  6.5486 20.2347 30.3369
 1992 052   128   124   7329 12.5618  0.8328  5.6481  2.6273  3.7195 0.00000  6.017  9.663 26.596 21.850  6.5137 20.2935 30.4960
 1992 053   129   125   7100  5.1373  0.6802  2.6985  1.1202  2.0027 0.00000  5.794  8.839 18.304 16.663  6.5118 20.2610 30.5404
 1992 054   130   126   6953 11.1333  0.6689  4.9015  2.1419  3.3908 0.00000  5.541  8.067 24.864 21.726  6.4770 20.3218 30.6972
 1992 055   131   127   6837 10.3873  0.5604  4.4036  2.2460  3.1514 0.00000  5.299  7.400 24.862 21.260  6.4727 20.3183 30.7274
 1992 056   132   128   6741  7.9152  0.4636  3.3350  1.6085  2.6401 0.00000  5.075  6.830 23.749 19.899  6.4694 20.3085 30.7576
 1992 057   133   129   6658  5.9673  0.4233  2.1729  1.0138  2.9326 0.00000  4.847  6.319 26.914 21.604  6.4675 20.3076 30.7702
 1992 058   134   130   6586  3.9371  0.3504  1.4317  0.5603  2.2521 0.00000  4.642  5.887 23.498 19.330  6.4662 20.3019 30.7843
 1992 059   135   131   6528  2.6107  0.2794  1.0200  0.3617  1.5720 0.00000  4.465  5.530 20.460 15.758  6.4660 20.2868 30.8009
 1992 060   136   132   6478  2.4133  0.2741  0.6097  0.1749  1.9460 0.00000  4.276  5.198 23.075 18.196  6.4655 20.2828 30.8081
 1992 061   137   133   6433  1.8842  0.2655  0.0000  0.0000  2.2519 0.00000  4.076  4.890 24.929 20.195  6.4655 20.2828 30.8081
 1992 062   138   134   6396  1.5288  0.2530  0.0000  0.0000  2.4336 0.00000  3.877  4.606 25.656 21.456  6.4655 20.2828 30.8081
 1992 063   139   135   6364  0.9495  0.2364  0.0000  0.0000  2.4462 0.00000  3.686  4.347 25.500 21.871  6.4655 20.2828 30.8081
 1992 064   140   136   6324  0.5902  0.2263  0.0000  0.0000  2.6107 0.00000  3.498  4.104 25.840 22.995  6.4655 20.2828 30.8081

*DSSAT Cropping System Model Ver. 4.6.1.000 -release      OCT 19, 2016; 12:53:44
                                                                                
*RUN   3        : UYSB                      CRGRO046 UYSB0881    1              
 MODEL          : CRGRO046 - Soybean                                            
 EXPERIMENT     : UYSB0881 SN late to create DSS                                
 DATA PATH      :                                                               
 TREATMENT  1   : UYSB                      CRGRO046                            
  
@YEAR DOY   DAS   DAP   TWAD    PHAD    CMAD    CGRD    GRAD    MRAD    CHAD   CL%D   CS%D   TGNN   TGAV    GN%D    GL%D    GC%D
 1992 293     4     0      0  0.0000  0.0000  0.0000  0.0000  0.0000 0.00000  0.000  0.000 18.504 15.435  0.0000  0.0000  0.0000
 1992 294     5     1      0  0.0000  0.0000  0.0000  0.0000  0.0000 0.00000  0.000  0.000 17.353 14.391  0.0000  0.0000  0.0000
 1992 295     6     2      0  0.0000  0.0000  0.0000  0.0000  0.0000 0.00000  0.000  0.000 18.935 13.295  0.0000  0.0000  0.0000
 1992 296     7     3      0  0.0000  0.0000  0.0000  0.0000  0.0000 0.00000  0.000  0.000 21.979 15.945  0.0000  0.0000  0.0000
 1992 297     8     4      0  0.0000  0.0000  0.0000  0.0000  0.0000 0.00000  0.000  0.000 25.026 19.562  0.0000  0.0000  0.0000
 1992 298     9     5      0  0.0000  0.0000  0.0000  0.0000  0.0000 0.00000  0.000  0.000 28.485 22.663  0.0000  0.0000  0.0000
 1992 299    10     6      0  0.0000  0.0000  0.0000  0.0000  0.0000 0.00000  0.000  0.000 25.101 21.957  0.0000  0.0000  0.0000
 1992 300    11     7      8  0.0000  0.0006  0.0004  0.0002  0.0000 0.00000  3.933  7.860 25.914 22.305  0.0000  0.0000  0.0000
 1992 301    12     8      9  0.1839  0.0006  0.1165  0.0383  0.0152 0.00000  3.890  7.763 27.917 22.842  0.0000  0.0000  0.0000
 1992 302    13     9      9  0.0463  0.0002  0.0267  0.0122  0.0022 0.00000  3.873  7.735 13.999 10.817  0.0000  0.0000  0.0000
 1992 303    14    10     10  0.1379  0.0003  0.0892  0.0311  0.0056 0.00000  3.855  7.714 19.277 12.841  0.0000  0.0000  0.0000
 1992 304    15    11     11  0.1543  0.0003  0.1001  0.0342  0.0068 0.00000  3.836  7.690 19.563 14.056  0.0000  0.0000  0.0000
 1992 305    16    12     12  0.1865  0.0004  0.1213  0.0403  0.0092 0.00000  3.814  7.666 21.338 15.258  0.0000  0.0000  0.0000
 1992 306    17    13     13  0.2472  0.0006  0.1598  0.0519  0.0149 0.00000  3.784  7.633 24.487 18.012  0.0000  0.0000  0.0000
 1992 307    18    14     15  0.2810  0.0009  0.1784  0.0576  0.0224 0.00000  3.744  7.581 27.724 21.571  0.0000  0.0000  0.0000
 1992 308    19    15     16  0.1792  0.0005  0.1165  0.0388  0.0089 0.00000  3.728  7.557 18.307 14.586  0.0000  0.0000  0.0000
 1992 309    20    16     17  0.1136  0.0003  0.0736  0.0257  0.0043 0.00000  3.726  7.550 13.012 10.293  0.0000  0.0000  0.0000
 1992 310    21    17     18  0.1173  0.0003  0.0768  0.0255  0.0045 0.00000  3.721  7.544 14.445  9.542  0.0000  0.0000  0.0000
 1992 311    22    18     19  0.1800  0.0004  0.1185  0.0377  0.0076 0.00000  3.712  7.537 17.151 11.997  0.0000  0.0000  0.0000
 1992 312    23    19     20  0.2386  0.0007  0.1569  0.0489  0.0117 0.00000  3.696  7.525 19.485 14.402  0.0000  0.0000  0.0000
 1992 313    24    20     22  0.3165  0.0009  0.2072  0.0631  0.0186 0.00000  3.673  7.508 22.809 16.759  0.0000  0.0000  0.0000
 1992 314    25    21     25  0.3869  0.0013  0.2494  0.0755  0.0294 0.00000  3.641  7.476 27.006 19.917  0.0000  0.0000  0.0000
 1992 315    26    22     26  0.1675  0.0014  0.0979  0.0399  0.0164 0.00000  3.621  7.391 21.156 19.007  0.0000  0.0000  0.0000
 1992 316    27    23     28  0.4354  0.0018  0.2625  0.1002  0.0380 0.00000  3.614  7.330 26.674 22.269  0.0000  0.0000  0.0000
 1992 317    28    24     31  0.5622  0.0019  0.3438  0.1256  0.0476 0.00000  3.607  7.302 27.512 22.427  0.0000  0.0000  0.0000
 1992 318    29    25     35  0.6580  0.0019  0.4122  0.1443  0.0472 0.00000  3.602  7.309 25.806 20.433  0.0000  0.0000  0.0000
 1992 319    30    26     39  0.6055  0.0024  0.3679  0.1325  0.0570 0.00000  3.585  7.279 29.032 22.943  0.0000  0.0000  0.0000
 1992 320    31    27     43  0.7608  0.0025  0.4695  0.1707  0.0583 0.00000  3.582  7.274 24.361 21.423  0.0000  0.0000  0.0000
 1992 321    32    28     48  0.7123  0.0018  0.4472  0.1679  0.0356 0.00000  3.596  7.289 19.166 15.978  0.0000  0.0000  0.0000
 1992 322    33    29     52  0.7426  0.0017  0.4730  0.1687  0.0345 0.00000  3.605  7.316 19.592 14.648  0.0000  0.0000  0.0000
 1992 323    34    30     58  0.9126  0.0021  0.5846  0.1992  0.0462 0.00000  3.608  7.349 21.596 15.612  0.0000  0.0000  0.0000
 1992 324    35    31     66  1.2535  0.0034  0.7926  0.2639  0.0854 0.00000  3.599  7.371 25.773 19.718  0.0000  0.0000  0.0000
 1992 325    36    32     73  1.1992  0.0045  0.7376  0.2570  0.1023 0.00000  3.584  7.349 27.774 21.970  0.0000  0.0000  0.0000
 1992 326    37    33     76  0.5696  0.0036  0.3451  0.1324  0.0450 0.00000  3.570  7.299 20.158 17.435  0.0000  0.0000  0.0000
 1992 327    38    34     82  1.0391  0.0027  0.6503  0.2510  0.0488 0.00000  3.585  7.305 18.028 14.695  0.0000  0.0000  0.0000
 1992 328    39    35     89  1.0118  0.0025  0.6430  0.2351  0.0463 0.00000  3.591  7.321 18.661 13.572  0.0000  0.0000  0.0000
 1992 329    40    36     99  1.6916  0.0048  1.0694  0.3713  0.1074 0.00000  3.585  7.343 23.969 18.629  0.0000  0.0000  0.0000
 1992 330    41    37    110  1.7510  0.0060  1.1082  0.3750  0.1202 0.00000  3.568  7.348 22.744 19.697  0.0000  0.0000  0.0000
 1992 331    42    38    121  1.8468  0.0069  1.1621  0.3936  0.1369 0.00000  3.550  7.343 24.411 20.218  0.0000  0.0000  0.0000
 1992 332    43    39    137  2.5584  0.0077  1.6035  0.5606  0.1780 0.00000  3.550  7.354 25.261 20.136  0.0000  0.0000  0.0000
 1992 333    44    40    151  2.3679  0.0091  1.4775  0.5099  0.1833 0.00000  3.536  7.341 25.778 20.688  0.0000  0.0000  0.0000
 1992 334    45    41    165  2.5121  0.0119  1.5390  0.5278  0.2420 0.00000  3.512  7.308 28.057 23.433  0.0000  0.0000  0.0000
 1992 335    46    42    181  2.9276  0.0133  1.8738  0.5746  0.2718 0.00000  3.521  7.287 26.745 23.412  0.0000  0.0000  0.0000
 1992 336    47    43    201  3.4203  0.0107  2.0243  0.8240  0.2181 0.00000  3.545  7.274 22.566 19.017  0.0000  0.0000  0.0000
 1992 337    48    44    223  3.7020  0.0099  2.2802  0.8669  0.2070 0.00000  3.572  7.279 22.660 16.961  0.0000  0.0000  0.0000
 1992 338    49    45    250  4.4580  0.0130  2.7273  1.0269  0.2872 0.00000  3.591  7.277 25.021 18.677  0.0000  0.0000  0.0000
 1992 339    50    46    282  5.4418  0.0179  3.2879  1.2456  0.4197 0.00000  3.601  7.264 27.006 21.414  0.0000  0.0000  0.0000
 1992 340    51    47    311  4.8952  0.0200  2.9519  1.1478  0.3923 0.00000  3.596  7.235 26.269 21.108  0.0000  0.0000  0.0000
 1992 341    52    48    349  6.5946  0.0267  4.2071  1.3800  0.6225 0.00000  3.623  7.207 28.167 24.332  0.0000  0.0000  0.0000
 1992 342    53    49    390  7.3639  0.0247  4.1025  1.8043  0.5392 0.00000  3.597  7.199 24.928 20.986  0.0000  0.0000  0.0000
 1992 343    54    50    442  8.7429  0.0286  5.2179  2.0038  0.6607 0.00000  3.594  7.200 26.149 21.454  0.0000  0.0000  0.0000
 1992 344    55    51    495  8.9762  0.0330  5.4303  2.0569  0.7003 0.01436  3.613  7.261 25.338 21.682  0.0000  0.0000  0.0000
 1992 345    56    52    557 10.6069  0.0402  6.3135  2.4473  0.8837 0.05212  3.674  7.460 26.072 22.775  0.0000  0.0000  0.0000
 1992 346    57    53    629 12.1326  0.0417  7.2630  2.8245  0.8938 0.09764  3.778  7.783 25.060 21.190  0.0000  0.0000  0.0000
 1992 347    58    54    719 15.1462  0.0463  9.0426  3.5405  1.0415 0.16630  3.927  8.236 25.448 20.467  0.0000  0.0000  0.0000
 1992 348    59    55    819 17.0146  0.0631  9.9159  3.9216  1.4099 0.23674  4.086  8.725 28.162 22.680  0.0000  0.0000  0.0000
 1992 349    60    56    925 18.1598  0.0746 10.5232  4.2012  1.4510 0.30974  4.253  9.237 26.709 22.159  0.0000  0.0000  0.0000
 1992 350    61    57   1043 19.9509  0.0711 12.0279  4.4852  1.3110 0.40919  4.477  9.817 25.605 19.155  0.0000  0.0000  0.0000
 1992 351    62    58   1159 19.6962  0.0979 11.7082  4.3112  1.5905 0.45974  4.664 10.324 27.499 21.300  0.0000  0.0000  0.0000
 1992 352    63    59   1264 18.3964  0.1276 10.8835  3.9262  1.6878 0.49319  4.828 10.762 26.283 22.736  0.0000  0.0000  0.0000
 1992 353    64    60   1417 24.4680  0.1394 15.4526  4.7995  2.1425 0.78209  5.079 11.422 28.286 22.589  0.0000  0.0000  0.0000
 1992 354    65    61   1531 19.9952  0.1666 10.7562  4.6015  1.9941 0.61268  5.170 11.789 28.646 22.842  0.0000  0.0000  0.0000
 1992 355    66    62   1688 28.2874  0.2113 15.2233  6.2478  3.2181 0.96298  5.355 12.355 31.713 26.088  0.0000  0.0000  0.0000
 1992 356    67    63   1833 27.0430  0.2251 15.3668  5.6131  2.8479 1.06583  5.610 12.929 30.180 24.197  0.0000  0.0000  0.0000
 1992 357    68    64   1913 16.7460  0.2671  7.6655  4.0979  2.1546 0.59296  5.620 13.078 27.964 24.095  0.0000  0.0000  0.0000
 1992 358    69    65   1990 17.3326  0.2893  8.7005  3.8857  2.2468 0.72996  5.727 13.326 26.782 24.310  0.0000  0.0000  0.0000
 1992 359    70    66   2171 31.1971  0.0000 18.5841  5.1764  3.0389 1.88760  6.235 14.530 27.410 23.397  0.0000  0.0000  0.0000
 1992 360    71    67   2336 29.2193  0.3029 16.0663  6.2730  2.5881 1.48786  6.414 15.049 25.763 21.356  0.0000  0.0000  0.0000
 1992 361    72    68   2539 34.9887  0.3163 20.0975  6.8980  2.7910 1.93188  6.682 15.712 25.510 20.422  0.0000  0.0000  0.0000
 1992 362    73    69   2762 35.6878  0.0000 20.6354  5.9438  2.9421 3.04235  7.243 17.168 25.949 20.431  0.0000  0.0000  0.0000
 1992 363    74    70   2986 35.9972  0.0000 18.8060  5.1097  3.7340 5.21984  8.237 19.844 29.481 22.709  0.0000  0.0000  0.0000
 1992 364    75    71   3070 17.1963  0.6150  9.9323  3.1001  2.5229 0.92943  8.250 19.786 24.813 22.699  0.0000  0.0000  0.0000
 1992 365    76    72   3156 17.3967  0.5818 10.0380  3.2329  2.3278 0.92099  8.271 19.759 22.806 21.480  0.0000  0.0000  0.0000
 1992 366    77    73   3215 15.2088  0.5241  8.8593  2.8099  1.9321 0.72297  8.282 19.719 20.066 19.708  0.0000  0.0000  0.0000
 1993 001    78    74   3280 16.1653  0.5628  9.3968  2.8796  2.1253 0.75722  8.296 19.683 20.986 20.413  0.0000  0.0000  0.0000
 1993 002    79    75   3347 16.6058  0.5819  9.4971  2.9879  2.2138 0.72190  8.306 19.639 21.479 20.619  0.0000  0.0000  0.0000
 1993 003    80    76   3414 16.8602  0.6007  9.6134  3.0274  2.2925 0.68864  8.313 19.590 21.606 20.817  0.0000  0.0000  0.0000
 1993 004    81    77   3541 25.6838  0.7638 14.6120  4.3789  3.7167 1.40000  8.378 19.681 27.681 24.419  0.0000  0.0000  0.0000
 1993 005    82    78   3720 34.0831  0.8497 18.7789  5.6223  4.9463 2.09331  8.506 19.937 29.553 26.219  0.0000  0.0000  0.0000
 1993 006    83    79   3920 38.4643  0.8713 20.4587  6.8201  5.3493 2.53115  8.672 20.297 30.349 25.940  0.0000  0.0000  0.0000
 1993 007    84    80   4024 23.2293  0.1950 12.2249  4.1409  3.6530 0.95151  8.810 20.543 26.273 23.799  0.0000  0.0000  0.0000
 1993 008    85    81   4191 31.7832  0.0000 15.9740  5.3348  4.1224 2.91371  9.261 21.644 25.725 23.395  0.0000  0.0000  0.0000
 1993 009    86    82   4405 39.2641  0.8518 21.6848  7.3612  4.1019 2.52385  9.415 21.964 25.431 21.524  0.0000  0.0000  0.0000
 1993 010    87    83   4615 39.5572  0.9974 21.6749  7.0559  5.0693 2.45600  9.543 22.217 29.062 23.650  0.0000  0.0000  0.0000
 1993 011    88    84   4814 39.9098  1.1542 21.4212  7.1804  5.7209 2.55978  9.672 22.465 30.227 24.994  0.0000  0.0000  0.0000
 1993 012    89    85   4991 39.7914  1.3084 21.1608  7.2323  6.3140 2.42105  9.766 22.622 30.927 26.232  6.5669 20.5000 29.9569
 1993 013    90    86   5102 34.3754  1.4249 17.6694  6.4909  6.2825 1.54097  9.773 22.564 31.332 26.924  6.6194 20.5000 29.6286
 1993 014    91    87   5198 29.4140  1.4909 14.9235  6.0954  5.6170 0.46314  9.683 22.255 29.041 26.245  6.5831 20.5000 29.8559
 1993 015    92    88   5326 37.2988  1.5289 19.4581  7.3246  6.4831 1.34460  9.669 22.148 29.671 26.696  6.5947 20.5000 29.7832
 1993 016    93    89   5410 29.3497  1.5182 14.9641  6.2589  5.3699 0.10420  9.546 21.757 27.614 25.285  6.5472 20.5000 30.0800
 1993 017    94    90   5531 34.3213  1.1506 17.4000  7.8681  3.8163 0.61032  9.514 21.599 22.385 19.984  6.4188 20.1485 31.2341
 1993 018    95    91   5659 32.8211  1.0606 17.4442  7.5862  3.3922 0.68833  9.502 21.493 23.008 18.313  6.3613 19.6523 32.0893
 1993 019    96    92   5808 36.4470  0.6464 19.4500  7.8133  4.4874 0.81104  9.576 21.578 25.006 21.100  6.3177 19.7441 32.2703
 1993 020    97    93   5938 38.4069  1.4876 18.7655  8.8965  5.6414 0.66670  9.518 21.355 28.245 23.408  6.3177 19.9132 32.1009
 1993 021    98    94   6075 38.3393  1.5407 19.9781  8.3949  6.1084 0.53485  9.442 21.087 29.693 24.212  6.3317 20.0297 31.8969
 1993 022    99    95   6177 38.0888  1.6901 18.1144  8.5730  7.1933 0.31062  9.329 20.721 31.351 26.550  6.3785 20.1133 31.5208
 1993 023   100    96   6269 35.1174  1.7620 16.6000  7.7763  7.7357 0.00000  9.176 20.250 32.630 28.044  6.4358 20.1768 31.0997
 1993 024   101    97   6349 36.5820  1.7828 16.9225  8.1191  8.2502 0.00000  9.020 19.769 33.095 28.689  6.4878 20.2251 30.7260
 1993 025   102    98   6362 26.1289  1.6258 13.1639  6.1231  5.3862 0.00000  8.881 19.329 26.683 24.319  6.4731 20.2701 30.7732
 1993 026   103    99   6425 33.1727  1.6040 15.6766  8.0333  6.4230 0.00000  8.743 18.886 29.845 25.332  6.4754 20.3070 30.7219
 1993 027   104   100   6429 17.1339  1.4361  9.2393  4.0451  4.0835 0.00000  8.624 18.486 23.844 22.160  6.4365 20.3111 30.9608
 1993 028   105   101   6509 34.8451  1.5569 16.3613  8.6446  6.2981 0.00000  8.495 18.043 28.198 24.868  6.4379 20.3389 30.9241
 1993 029   106   102   6582 31.5464  1.4655 15.6730  7.8423  5.5005 0.00000  8.375 17.621 26.781 23.415  6.4215 20.3605 31.0053
 1993 030   107   103   6675 35.4787  1.4548 17.1752  8.9712  6.0001 0.00000  8.252 17.194 27.824 23.814  6.4128 20.3783 31.0419
 1993 031   108   104   6711 21.4251  1.3089 11.2052  5.2461  4.7107 0.02753  8.152 16.820 24.551 22.904  6.4080 20.3656 31.0845
 1993 032   109   105   6772 30.8641  1.4265 14.8674  7.8323  5.8378 0.00000  8.030 16.387 27.384 24.055  6.4042 20.3809 31.0931
 1993 033   110   106   6833 32.0314  1.3794 15.5879  8.1435  5.7854 0.00000  7.908 15.958 26.852 23.702  6.3975 20.3940 31.1218
 1993 034   111   107   6918 30.1556  1.0285 14.6008  7.7735  5.4620 0.08840  7.851 15.678 26.534 23.098  6.4105 20.3533 31.0813
 1993 035   112   108   7010 32.2958  1.2156 15.8143  8.8698  5.0208 0.00000  7.740 15.283 25.917 21.443  6.3898 20.3313 31.2324
 1993 036   113   109   7095 31.7455  0.9017 14.7204  8.4390  6.2177 0.12279  7.703 15.051 28.640 24.239  6.4173 20.2896 31.1024
 1993 037   114   110   7161 28.0150  1.0428 13.2323  7.2418  6.0784 0.07164  7.627 14.736 29.219 24.282  6.4304 20.2744 31.0353
 1993 038   115   111   7191 16.6041  1.0480  9.1511  4.1177  3.6092 0.00972  7.523 14.378 22.050 19.689  6.4202 20.2243 31.1494
 1993 039   116   112   7201 10.1778  0.9503  6.3702  2.3090  2.6191 0.00000  7.422 14.041 18.893 17.140  6.4155 20.1296 31.2737
 1993 040   117   113   7254 16.9239  0.8591  9.2440  4.6037  2.9676 0.02782  7.338 13.747 20.128 17.482  6.4132 20.0068 31.4106
 1993 041   118   114   7342 25.7455  0.6990 12.5718  7.2583  3.9601 0.09355  7.296 13.543 24.222 19.109  6.4162 19.9125 31.4863
 1993 042   119   115   7432 28.1725  0.7509 12.9828  7.6479  5.1562 0.10746  7.245 13.322 27.343 22.052  6.4230 19.8988 31.4573
 1993 043   120   116   7508 25.9193  0.8425 11.7086  6.7774  5.6121 0.09049  7.168 13.052 28.653 23.649  6.4329 19.8990 31.3954
 1993 044   121   117   7574 22.4993  0.8498 10.5112  5.8896  4.7094 0.07251  7.077 12.764 25.875 22.158  6.4353 19.8948 31.3842
 1993 045   122   118   7644 23.6730  0.8167 10.6778  6.2122  5.1141 0.08197  6.987 12.489 27.925 22.887  6.4406 19.8936 31.3526
 1993 046   123   119   7718 24.1625  0.7552 10.8649  6.4981  4.8429 0.09174  6.905 12.238 26.881 22.236  6.4451 19.8858 31.3324
 1993 047   124   120   7734 12.3092  1.0049  6.1645  2.7681  3.7982 0.00228  6.742 11.831 24.511 21.403  6.4400 19.8903 31.3595
 1993 048   125   121   7746 11.6674  0.9501  5.7111  2.5576  3.7538 0.01232  6.584 11.444 23.638 21.567  6.4370 19.8926 31.3761
 1993 049   126   122   7792 18.1625  0.9130  7.9888  4.3661  4.9556 0.03486  6.431 11.079 27.774 23.882  6.4393 19.8999 31.3543
 1993 050   127   123   7829 15.6131  0.9392  6.8977  3.4343  4.6867 0.01969  6.260 10.687 26.548 23.799  6.4398 19.9086 31.3429
 1993 051   128   124   7867 14.9546  0.7722  6.7122  3.5618  3.8058 0.04128  6.123 10.375 24.184 21.293  6.4395 19.9020 31.3511
 1993 052   129   125   7916 15.2237  0.6540  7.2154  4.3152  2.7752 0.04101  6.005 10.111 21.372 17.519  6.4400 19.8408 31.4089
 1993 053   130   126   7970 16.9713  0.6227  7.6239  4.7156  3.2973 0.05844  5.894  9.867 23.913 18.990  6.4409 19.8038 31.4407
 1993 054   131   127   8021 16.3953  0.6324  7.2578  4.5292  3.3684 0.05503  5.776  9.615 24.042 19.441  6.4414 19.7768 31.4644
 1993 055   132   128   8076 16.0847  0.4399  7.4159  3.1153  3.6017 0.11743  5.716  9.484 24.409 20.451  6.3792 19.8921 31.7377
 1993 056   133   129   7876 13.4787  0.8122  6.2841  2.6333  3.5897 0.00000  5.470  8.568 24.818 20.897  6.3334 19.9801 31.9362
 1993 057   134   130   7719 12.0642  0.6876  5.3831  2.2744  3.5313 0.00000  5.227  7.768 25.505 21.335  6.2954 20.0559 32.0977
 1993 058   135   131   7586  9.5173  0.6020  3.6554  1.7250  3.8102 0.00000  4.985  7.062 28.306 22.997  6.2805 20.0908 32.1562
 1993 059   136   132   7458  6.2525  0.5534  1.6819  0.6306  4.4599 0.00000  4.735  6.427 30.968 26.516  6.2820 20.0927 32.1450
 1993 060   137   133   7358  4.4056  0.4215  1.5040  0.5874  2.6730 0.00000  4.524  5.911 23.942 20.595  6.2815 20.0914 32.1489
 1993 061   138   134   7277  3.2985  0.3402  1.1773  0.4438  2.0266 0.00000  4.338  5.482 21.825 17.767  6.2814 20.0842 32.1571
 1993 062   139   135   7209  2.7958  0.3084  0.8369  0.2401  2.0859 0.00000  4.155  5.104 22.937 18.239  6.2812 20.0800 32.1623
 1993 063   140   136   7152  1.7599  0.2628  0.2646  0.0759  1.7107 0.00000  3.984  4.783 21.076 16.487  6.2813 20.0775 32.1646
 1993 064   141   137   7102  1.4368  0.2613  0.0000  0.0000  2.1484 0.00000  3.802  4.485 23.906 19.175  6.2813 20.0775 32.1646
 1993 065   142   138   7060  0.8703  0.2628  0.0000  0.0000  2.6604 0.00000  3.612  4.201 25.288 22.337  6.2813 20.0775 32.1646
 1993 066   143   139   7019  0.5125  0.2434  0.0000  0.0000  2.6338 0.00000  3.430  3.946 24.102 22.538  6.2813 20.0775 32.1646
 1993 067   144   140   6978  0.7834  0.2315  0.0000  0.0000  2.9106 0.00000  3.252  3.712 27.343 23.648  6.2813 20.0775 32.1646
