*PLANT N BALANCE

*DSSAT Cropping System Model Ver. 4.6.1.000 -release      JUN 01, 2017; 12:00:49
                                                                                
*RUN   1        : UYSB                      CRGRO046 UYSB1240    1              
 MODEL          : CRGRO046 - Soybean                                            
 EXPERIMENT     : UYSB1240 SN late to create DSS                                
 DATA PATH      :                                                               
 TREATMENT  1   : UYSB                      CRGRO046                            
                                                                                
                                                                                
 CROP           : Soybean          CULTIVAR : GM 4 URUGUAY     ECOTYPE :INDETE  
 STARTING DATE  : MAY 29 1990                                                   
 PLANTING DATE  : JUN  1 1990        PLANTS/m2 :  7.0     ROW SPACING :  15.cm  
 WEATHER        : UYTA   1990                                                   
 SOIL           : UYSN0J6O17     TEXTURE : CL    -  H08-06    YOUNG_Brun_E_T    
 SOIL INITIAL C : DEPTH: 70cm EXTR. H2O: 99.9mm  NO3: 19.5kg/ha  NH4: 13.8kg/ha 
 WATER BALANCE  : AUTOMATIC IRRIGATION - REFILL PROFILE                         
 IRRIGATION     : AUTOMATIC - PLANTING -> MATURITY [ SOIL DEPTH: 0.30m 50.%]    
 NITROGEN BAL.  : SOIL-N, N-UPTAKE & DYNAMIC N-FIXATION SIMULATION              
 N-FERTILIZER   : NO N-FERTILIZER APPLIED                                       
 RESIDUE/MANURE : INITIAL :     0 kg/ha ;       0 kg/ha IN     0 APPLICATIONS   
 ENVIRONM. OPT. : DAYL=    0.00  SRAD=    0.00  TMAX=    0.00  TMIN=    0.00    
                  RAIN=    0.00  CO2 =    0.00  DEW =    0.00  WIND=    0.00    
 SIMULATION OPT : WATER   :Y  NITROGEN:Y  N-FIX:Y  PHOSPH :N  PESTS  :N         
                  PHOTO   :C  ET      :R  INFIL:S  HYDROL :R  SOM    :G         
                  CO2 354ppm  NSWIT   :1  EVAP :S  SOIL   :2  STEMP  :D         
 MANAGEMENT OPT : PLANTING:R  IRRIG   :A  FERT :N  RESIDUE:N  HARVEST:M         
                  WEATHER :M  TILLAGE :N                                        
                                                                                
*SUMMARY OF SOIL AND GENETIC INPUT PARAMETERS                                   
                                                                                
   SOIL LOWER UPPER   SAT  EXTR  INIT   ROOT   BULK     pH    NO3    NH4    ORG 
  DEPTH LIMIT LIMIT    SW    SW    SW   DIST   DENS                          C  
   cm   cm3/cm3    cm3/cm3    cm3/cm3         g/cm3         ugN/g  ugN/g     %  
------------------------------------------------------------------------------- 
  0-  5 0.167 0.343 0.449 0.176 0.219   1.00   1.19   6.40   5.00   1.50   3.25 
  5- 15 0.167 0.343 0.449 0.176 0.219   1.00   1.19   6.40   5.00   1.50   3.25 
 15- 18 0.167 0.343 0.449 0.176 0.219   1.00   1.19   6.40   5.00   1.50   3.25 
 18- 32 0.175 0.334 0.446 0.159 0.222   0.50   1.26   6.40   5.00   1.50   2.58 
 32- 42 0.213 0.342 0.449 0.129 0.342   0.40   1.35   6.70   0.00   1.50   1.57 
 42- 56 0.189 0.307 0.436 0.118 0.307   0.10   1.41   7.00   0.00   1.50   0.94 
 56- 70 0.189 0.307 0.436 0.118 0.307   0.10   1.41   7.00   0.00   1.50   0.94 
                                                                                
TOT- 70  12.9  22.9  31.0  10.0  19.1  <--cm   -  kg/ha-->   19.5   13.8 173432 
SOIL ALBEDO    : 0.12      EVAPORATION LIMIT :10.00         MIN. FACTOR  : 1.00 
RUNOFF CURVE # : 0.75      DRAINAGE RATE     : 0.25         FERT. FACTOR : 1.00 
                                                                                
 Soybean    CULTIVAR :UY0141-GM 4 URUGUAY       ECOTYPE :INDETE                 
 CSDVAR :13.39  PPSEN  : 0.29  EMG-FLW:20.80  FLW-FSD:18.00  FSD-PHM : 36.00    
 WTPSD  :0.200  SDPDVR : 1.70  SDFDUR :26.00  PODDUR :10.00  XFRUIT  :  1.00    
 THRESH : 77.0  SDPRO  :0.405  SDLIP   : 0.205                                  


   PLANT COMPONENT  HARVEST     LOST*   TOTAL  BALANCE
   ---------------  -------- kg[N]/ha -------  -------
   Leaf N              0.00     0.44     0.44
   Stem N              0.05     0.00     0.05
   Shell N             0.00     0.00     0.00
   Seed N              0.00     0.00     0.00
   Root N              0.13     0.01     0.13
   Nodule N            0.01     0.04     0.05
   Total N             0.18     0.48     0.67
   N leakage                             0.28
   TOTAL N                                        0.95


   N INPUTS TO SYSTEM                kg[N]/ha
   ------------------                --------
   Seed N At Planting                    0.68
   N2 Fixed                              0.05
   N Uptake from Soil                    0.37
   TOTAL N                                        1.10

   * Lost due to senescence, freeze, pest or disease damage.

*******************************************************************************

*DSSAT Cropping System Model Ver. 4.6.1.000 -release      JUN 01, 2017; 12:00:49
                                                                                
*RUN   2        : UYSB                      CRGRO046 UYSB1240    1              
 MODEL          : CRGRO046 - Soybean                                            
 EXPERIMENT     : UYSB1240 SN late to create DSS                                
 DATA PATH      :                                                               
 TREATMENT  1   : UYSB                      CRGRO046                            
                                                                                
                                                                                
 CROP           : Soybean          CULTIVAR : GM 4 URUGUAY     ECOTYPE :INDETE  
 STARTING DATE  : MAY 29 1991                                                   
 PLANTING DATE  : JUN  1 1991        PLANTS/m2 :  7.0     ROW SPACING :  15.cm  
 WEATHER        : UYTA9101                                                      
 SOIL           : UYSN0J6O17     TEXTURE : CL    -  H08-06    YOUNG_Brun_E_T    
 SOIL INITIAL C : DEPTH: 70cm EXTR. H2O: 99.9mm  NO3: 19.5kg/ha  NH4: 13.8kg/ha 
 WATER BALANCE  : AUTOMATIC IRRIGATION - REFILL PROFILE                         
 IRRIGATION     : AUTOMATIC - PLANTING -> MATURITY [ SOIL DEPTH: 0.30m 50.%]    
 NITROGEN BAL.  : SOIL-N, N-UPTAKE & DYNAMIC N-FIXATION SIMULATION              
 N-FERTILIZER   : NO N-FERTILIZER APPLIED                                       
 RESIDUE/MANURE : INITIAL :     0 kg/ha ;       0 kg/ha IN     0 APPLICATIONS   
 ENVIRONM. OPT. : DAYL=    0.00  SRAD=    0.00  TMAX=    0.00  TMIN=    0.00    
                  RAIN=    0.00  CO2 =    0.00  DEW =    0.00  WIND=    0.00    
 SIMULATION OPT : WATER   :Y  NITROGEN:Y  N-FIX:Y  PHOSPH :N  PESTS  :N         
                  PHOTO   :C  ET      :R  INFIL:S  HYDROL :R  SOM    :G         
                  CO2 356ppm  NSWIT   :1  EVAP :S  SOIL   :2  STEMP  :D         
 MANAGEMENT OPT : PLANTING:R  IRRIG   :A  FERT :N  RESIDUE:N  HARVEST:M         
                  WEATHER :M  TILLAGE :N                                        
                                                                                
*SUMMARY OF SOIL AND GENETIC INPUT PARAMETERS                                   
                                                                                
   SOIL LOWER UPPER   SAT  EXTR  INIT   ROOT   BULK     pH    NO3    NH4    ORG 
  DEPTH LIMIT LIMIT    SW    SW    SW   DIST   DENS                          C  
   cm   cm3/cm3    cm3/cm3    cm3/cm3         g/cm3         ugN/g  ugN/g     %  
------------------------------------------------------------------------------- 
  0-  5 0.167 0.343 0.449 0.176 0.219   1.00   1.19   6.40   5.00   1.50   3.25 
  5- 15 0.167 0.343 0.449 0.176 0.219   1.00   1.19   6.40   5.00   1.50   3.25 
 15- 18 0.167 0.343 0.449 0.176 0.219   1.00   1.19   6.40   5.00   1.50   3.25 
 18- 32 0.175 0.334 0.446 0.159 0.222   0.50   1.26   6.40   5.00   1.50   2.58 
 32- 42 0.213 0.342 0.449 0.129 0.342   0.40   1.35   6.70   0.00   1.50   1.57 
 42- 56 0.189 0.307 0.436 0.118 0.307   0.10   1.41   7.00   0.00   1.50   0.94 
 56- 70 0.189 0.307 0.436 0.118 0.307   0.10   1.41   7.00   0.00   1.50   0.94 
                                                                                
TOT- 70  12.9  22.9  31.0  10.0  19.1  <--cm   -  kg/ha-->   19.5   13.8 173432 
SOIL ALBEDO    : 0.12      EVAPORATION LIMIT :10.00         MIN. FACTOR  : 1.00 
RUNOFF CURVE # : 0.75      DRAINAGE RATE     : 0.25         FERT. FACTOR : 1.00 
                                                                                
 Soybean    CULTIVAR :UY0141-GM 4 URUGUAY       ECOTYPE :INDETE                 
 CSDVAR :13.39  PPSEN  : 0.29  EMG-FLW:20.80  FLW-FSD:18.00  FSD-PHM : 36.00    
 WTPSD  :0.200  SDPDVR : 1.70  SDFDUR :26.00  PODDUR :10.00  XFRUIT  :  1.00    
 THRESH : 77.0  SDPRO  :0.405  SDLIP   : 0.205                                  


   PLANT COMPONENT  HARVEST     LOST*   TOTAL  BALANCE
   ---------------  -------- kg[N]/ha -------  -------
   Leaf N              0.63    11.74    12.37
   Stem N              4.36     2.01     6.37
   Shell N             9.35    21.91    31.26
   Seed N             63.53     0.00    63.53
   Root N              3.46     2.18     5.64
   Nodule N            1.02     1.97     2.99
   Total N            82.37    39.80   122.17
   N leakage                             9.13
   TOTAL N                                      131.30


   N INPUTS TO SYSTEM                kg[N]/ha
   ------------------                --------
   Seed N At Planting                    0.68
   N2 Fixed                             58.09
   N Uptake from Soil                   72.53
   TOTAL N                                      131.30

   * Lost due to senescence, freeze, pest or disease damage.

*******************************************************************************

*DSSAT Cropping System Model Ver. 4.6.1.000 -release      JUN 01, 2017; 12:00:49
                                                                                
*RUN   3        : UYSB                      CRGRO046 UYSB1240    1              
 MODEL          : CRGRO046 - Soybean                                            
 EXPERIMENT     : UYSB1240 SN late to create DSS                                
 DATA PATH      :                                                               
 TREATMENT  1   : UYSB                      CRGRO046                            
                                                                                
                                                                                
 CROP           : Soybean          CULTIVAR : GM 4 URUGUAY     ECOTYPE :INDETE  
 STARTING DATE  : MAY 28 1992                                                   
 PLANTING DATE  : MAY 31 1992        PLANTS/m2 :  7.0     ROW SPACING :  15.cm  
 WEATHER        : UYTA9201                                                      
 SOIL           : UYSN0J6O17     TEXTURE : CL    -  H08-06    YOUNG_Brun_E_T    
 SOIL INITIAL C : DEPTH: 70cm EXTR. H2O: 99.9mm  NO3: 19.5kg/ha  NH4: 13.8kg/ha 
 WATER BALANCE  : AUTOMATIC IRRIGATION - REFILL PROFILE                         
 IRRIGATION     : AUTOMATIC - PLANTING -> MATURITY [ SOIL DEPTH: 0.30m 50.%]    
 NITROGEN BAL.  : SOIL-N, N-UPTAKE & DYNAMIC N-FIXATION SIMULATION              
 N-FERTILIZER   : NO N-FERTILIZER APPLIED                                       
 RESIDUE/MANURE : INITIAL :     0 kg/ha ;       0 kg/ha IN     0 APPLICATIONS   
 ENVIRONM. OPT. : DAYL=    0.00  SRAD=    0.00  TMAX=    0.00  TMIN=    0.00    
                  RAIN=    0.00  CO2 =    0.00  DEW =    0.00  WIND=    0.00    
 SIMULATION OPT : WATER   :Y  NITROGEN:Y  N-FIX:Y  PHOSPH :N  PESTS  :N         
                  PHOTO   :C  ET      :R  INFIL:S  HYDROL :R  SOM    :G         
                  CO2 356ppm  NSWIT   :1  EVAP :S  SOIL   :2  STEMP  :D         
 MANAGEMENT OPT : PLANTING:R  IRRIG   :A  FERT :N  RESIDUE:N  HARVEST:M         
                  WEATHER :M  TILLAGE :N                                        
                                                                                
*SUMMARY OF SOIL AND GENETIC INPUT PARAMETERS                                   
                                                                                
   SOIL LOWER UPPER   SAT  EXTR  INIT   ROOT   BULK     pH    NO3    NH4    ORG 
  DEPTH LIMIT LIMIT    SW    SW    SW   DIST   DENS                          C  
   cm   cm3/cm3    cm3/cm3    cm3/cm3         g/cm3         ugN/g  ugN/g     %  
------------------------------------------------------------------------------- 
  0-  5 0.167 0.343 0.449 0.176 0.219   1.00   1.19   6.40   5.00   1.50   3.25 
  5- 15 0.167 0.343 0.449 0.176 0.219   1.00   1.19   6.40   5.00   1.50   3.25 
 15- 18 0.167 0.343 0.449 0.176 0.219   1.00   1.19   6.40   5.00   1.50   3.25 
 18- 32 0.175 0.334 0.446 0.159 0.222   0.50   1.26   6.40   5.00   1.50   2.58 
 32- 42 0.213 0.342 0.449 0.129 0.342   0.40   1.35   6.70   0.00   1.50   1.57 
 42- 56 0.189 0.307 0.436 0.118 0.307   0.10   1.41   7.00   0.00   1.50   0.94 
 56- 70 0.189 0.307 0.436 0.118 0.307   0.10   1.41   7.00   0.00   1.50   0.94 
                                                                                
TOT- 70  12.9  22.9  31.0  10.0  19.1  <--cm   -  kg/ha-->   19.5   13.8 173432 
SOIL ALBEDO    : 0.12      EVAPORATION LIMIT :10.00         MIN. FACTOR  : 1.00 
RUNOFF CURVE # : 0.75      DRAINAGE RATE     : 0.25         FERT. FACTOR : 1.00 
                                                                                
 Soybean    CULTIVAR :UY0141-GM 4 URUGUAY       ECOTYPE :INDETE                 
 CSDVAR :13.39  PPSEN  : 0.29  EMG-FLW:20.80  FLW-FSD:18.00  FSD-PHM : 36.00    
 WTPSD  :0.200  SDPDVR : 1.70  SDFDUR :26.00  PODDUR :10.00  XFRUIT  :  1.00    
 THRESH : 77.0  SDPRO  :0.405  SDLIP   : 0.205                                  


   PLANT COMPONENT  HARVEST     LOST*   TOTAL  BALANCE
   ---------------  -------- kg[N]/ha -------  -------
   Leaf N              0.81    15.33    16.15
   Stem N              5.74     2.58     8.32
   Shell N            13.52    33.13    46.65
   Seed N             79.17     0.00    79.17
   Root N              4.45     3.17     7.62
   Nodule N            1.35     1.76     3.11
   Total N           105.04    55.97   161.01
   N leakage                            13.66
   TOTAL N                                      174.67


   N INPUTS TO SYSTEM                kg[N]/ha
   ------------------                --------
   Seed N At Planting                    0.68
   N2 Fixed                             70.06
   N Uptake from Soil                  103.94
   TOTAL N                                      174.68

   * Lost due to senescence, freeze, pest or disease damage.

*******************************************************************************
