*PLANT C OUTPUT FILE

*DSSAT Cropping System Model Ver. 4.6.1.000 -release      OCT 19, 2016; 15:06:25
                                                                                
*RUN   1        : UYSB                      CRGRO046 UYSB0926    1              
 MODEL          : CRGRO046 - Soybean                                            
 EXPERIMENT     : UYSB0926 SN late to create DSS                                
 DATA PATH      :                                                               
 TREATMENT  1   : UYSB                      CRGRO046                            
  
@YEAR DOY   DAS   DAP   TWAD    PHAD    CMAD    CGRD    GRAD    MRAD    CHAD   CL%D   CS%D   TGNN   TGAV    GN%D    GL%D    GC%D
 2000 293     4     0      0  0.0000  0.0000  0.0000  0.0000  0.0000 0.00000  0.000  0.000 19.218 18.076  0.0000  0.0000  0.0000
 2000 294     5     1      0  0.0000  0.0000  0.0000  0.0000  0.0000 0.00000  0.000  0.000 24.948 21.022  0.0000  0.0000  0.0000
 2000 295     6     2      0  0.0000  0.0000  0.0000  0.0000  0.0000 0.00000  0.000  0.000 25.659 21.268  0.0000  0.0000  0.0000
 2000 296     7     3      0  0.0000  0.0000  0.0000  0.0000  0.0000 0.00000  0.000  0.000 19.163 17.878  0.0000  0.0000  0.0000
 2000 297     8     4      0  0.0000  0.0000  0.0000  0.0000  0.0000 0.00000  0.000  0.000 18.191 16.726  0.0000  0.0000  0.0000
 2000 298     9     5      0  0.0000  0.0000  0.0000  0.0000  0.0000 0.00000  0.000  0.000 20.844 18.058  0.0000  0.0000  0.0000
 2000 299    10     6      0  0.0000  0.0000  0.0000  0.0000  0.0000 0.00000  0.000  0.000 21.203 19.273  0.0000  0.0000  0.0000
 2000 300    11     7      8  0.0000  0.0005  0.0003  0.0001  0.0000 0.00000  3.939  7.872 23.046 20.974  0.0000  0.0000  0.0000
 2000 301    12     8      9  0.1736  0.0004  0.1105  0.0369  0.0102 0.00000  3.899  7.802 22.996 18.600  0.0000  0.0000  0.0000
 2000 302    13     9     10  0.1385  0.0003  0.0885  0.0303  0.0062 0.00000  3.877  7.760 18.506 14.610  0.0000  0.0000  0.0000
 2000 303    14    10     10  0.1218  0.0003  0.0781  0.0269  0.0047 0.00000  3.863  7.734 16.370 12.616  0.0000  0.0000  0.0000
 2000 304    15    11     12  0.2313  0.0006  0.1490  0.0464  0.0138 0.00000  3.830  7.692 24.543 18.250  0.0000  0.0000  0.0000
 2000 305    16    12     13  0.2551  0.0007  0.1644  0.0509  0.0166 0.00000  3.793  7.647 24.543 19.465  0.0000  0.0000  0.0000
 2000 306    17    13     14  0.1226  0.0008  0.0770  0.0250  0.0110 0.00000  3.749  7.568 23.242 19.629  0.0000  0.0000  0.0000
 2000 307    18    14     15  0.2234  0.0007  0.1451  0.0450  0.0138 0.00000  3.719  7.536 21.248 18.135  0.0000  0.0000  0.0000
 2000 308    19    15     17  0.2707  0.0007  0.1775  0.0543  0.0143 0.00000  3.699  7.527 21.391 16.382  0.0000  0.0000  0.0000
 2000 309    20    16     18  0.2146  0.0007  0.1400  0.0426  0.0124 0.00000  3.677  7.500 20.369 16.289  0.0000  0.0000  0.0000
 2000 310    21    17     20  0.3138  0.0009  0.2057  0.0611  0.0180 0.00000  3.655  7.488 22.002 17.243  0.0000  0.0000  0.0000
 2000 311    22    18     23  0.3502  0.0011  0.2285  0.0674  0.0233 0.00000  3.626  7.465 23.235 19.048  0.0000  0.0000  0.0000
 2000 312    23    19     24  0.2251  0.0013  0.1365  0.0504  0.0188 0.00000  3.611  7.394 22.380 19.301  0.0000  0.0000  0.0000
 2000 313    24    20     26  0.3404  0.0015  0.2075  0.0756  0.0281 0.00000  3.600  7.334 23.868 21.004  0.0000  0.0000  0.0000
 2000 314    25    21     27  0.2162  0.0013  0.1307  0.0493  0.0181 0.00000  3.584  7.274 20.093 18.554  0.0000  0.0000  0.0000
 2000 315    26    22     30  0.5189  0.0014  0.3277  0.1162  0.0317 0.00000  3.588  7.286 22.049 18.612  0.0000  0.0000  0.0000
 2000 316    27    23     34  0.6173  0.0018  0.3907  0.1335  0.0420 0.00000  3.582  7.303 24.014 19.968  0.0000  0.0000  0.0000
 2000 317    28    24     38  0.6803  0.0022  0.4231  0.1464  0.0521 0.00000  3.576  7.299 24.582 21.466  0.0000  0.0000  0.0000
 2000 318    29    25     42  0.5848  0.0017  0.3647  0.1338  0.0331 0.00000  3.586  7.295 20.315 17.020  0.0000  0.0000  0.0000
 2000 319    30    26     44  0.4267  0.0009  0.2637  0.1057  0.0165 0.00000  3.609  7.295 14.872 11.971  0.0000  0.0000  0.0000
 2000 320    31    27     47  0.4030  0.0008  0.2535  0.0955  0.0150 0.00000  3.621  7.305 14.988 10.833  0.0000  0.0000  0.0000
 2000 321    32    28     51  0.7942  0.0016  0.5090  0.1748  0.0360 0.00000  3.628  7.344 20.254 14.451  0.0000  0.0000  0.0000
 2000 322    33    29     58  1.0861  0.0025  0.6928  0.2326  0.0616 0.00000  3.626  7.379 23.490 17.508  0.0000  0.0000  0.0000
 2000 323    34    30     66  1.3041  0.0033  0.8296  0.2740  0.0837 0.00000  3.617  7.405 25.430 19.017  0.0000  0.0000  0.0000
 2000 324    35    31     75  1.3976  0.0044  0.8709  0.2973  0.1076 0.00000  3.606  7.399 27.187 21.168  0.0000  0.0000  0.0000
 2000 325    36    32     82  1.2210  0.0032  0.7657  0.2892  0.0620 0.00000  3.618  7.396 19.830 15.996  0.0000  0.0000  0.0000
 2000 326    37    33     92  1.6495  0.0042  1.0419  0.3696  0.0977 0.00000  3.619  7.409 24.001 17.730  0.0000  0.0000  0.0000
 2000 327    38    34    103  1.7275  0.0064  1.0719  0.3742  0.1393 0.00000  3.600  7.386 26.367 21.565  0.0000  0.0000  0.0000
 2000 328    39    35    114  2.0020  0.0081  1.2191  0.4218  0.2000 0.00000  3.576  7.358 30.129 24.431  0.0000  0.0000  0.0000
 2000 329    40    36    122  1.3309  0.0054  0.8446  0.2878  0.0815 0.00000  3.563  7.344 19.478 16.790  0.0000  0.0000  0.0000
 2000 330    41    37    135  2.0530  0.0054  1.3057  0.4490  0.1083 0.00000  3.569  7.361 21.400 16.132  0.0000  0.0000  0.0000
 2000 331    42    38    152  2.8132  0.0087  1.7651  0.5903  0.1999 0.00000  3.564  7.367 25.795 20.240  0.0000  0.0000  0.0000
 2000 332    43    39    163  1.8358  0.0106  1.1317  0.3784  0.1677 0.00000  3.535  7.320 25.824 21.129  0.0000  0.0000  0.0000
 2000 333    44    40    171  1.3467  0.0098  0.8323  0.2857  0.1208 0.00000  3.508  7.270 20.672 19.274  0.0000  0.0000  0.0000
 2000 334    45    41    182  1.8626  0.0081  1.1820  0.4035  0.1173 0.00000  3.497  7.262 19.824 16.706  0.0000  0.0000  0.0000
 2000 335    46    42    200  3.0244  0.0085  1.8705  0.7303  0.1618 0.00000  3.530  7.266 20.854 16.481  0.0000  0.0000  0.0000
 2000 336    47    43    220  3.2446  0.0093  2.0043  0.7826  0.1783 0.00000  3.554  7.268 21.779 16.402  0.0000  0.0000  0.0000
 2000 337    48    44    248  4.7093  0.0137  2.8744  1.1229  0.3140 0.00000  3.577  7.269 25.114 19.558  0.0000  0.0000  0.0000
 2000 338    49    45    273  4.3635  0.0163  2.6459  1.0318  0.3229 0.00000  3.581  7.249 25.557 20.109  0.0000  0.0000  0.0000
 2000 339    50    46    292  3.1795  0.0152  1.9397  0.7499  0.2217 0.00000  3.574  7.218 20.807 18.154  0.0000  0.0000  0.0000
 2000 340    51    47    326  5.7209  0.0154  3.5354  1.3547  0.3192 0.00000  3.591  7.234 21.598 17.584  0.0000  0.0000  0.0000
 2000 341    52    48    370  7.3320  0.0225  4.4379  1.6884  0.5575 0.00000  3.599  7.237 27.782 21.043  0.0000  0.0000  0.0000
 2000 342    53    49    417  8.1092  0.0303  4.8305  1.8447  0.7449 0.00000  3.594  7.218 29.193 23.817  0.0000  0.0000  0.0000
 2000 343    54    50    463  8.0646  0.0363  4.7356  1.8306  0.8465 0.00543  3.587  7.211 30.375 25.214  0.0000  0.0000  0.0000
 2000 344    55    51    529 11.6248  0.0419  6.8123  2.6403  1.1652 0.04816  3.652  7.415 30.157 25.749  0.0000  0.0000  0.0000
 2000 345    56    52    599 11.9257  0.0438  7.0662  2.7455  1.0125 0.08925  3.751  7.725 27.592 23.005  0.0000  0.0000  0.0000
 2000 346    57    53    662 11.0719  0.0558  6.4186  2.5006  1.1115 0.12007  3.847  8.038 28.460 24.590  0.0000  0.0000  0.0000
 2000 347    58    54    746 14.5203  0.0603  8.3941  3.2802  1.4013 0.20399  4.005  8.522 30.301 24.389  0.0000  0.0000  0.0000
 2000 348    59    55    850 17.6260  0.0808 10.6960  3.5479  1.9810 0.32369  4.241  9.141 31.855 27.161  0.0000  0.0000  0.0000
 2000 349    60    56    943 17.3582  0.0938  8.9262  4.1435  1.7343 0.32990  4.368  9.621 28.362 25.030  0.0000  0.0000  0.0000
 2000 350    61    57   1049 18.6448  0.0940 10.9726  3.9589  1.6005 0.46835  4.619 10.249 27.550 22.570  0.0000  0.0000  0.0000
 2000 351    62    58   1146 16.6671  0.0617  9.2775  3.9770  0.8210 0.42922  4.778 10.751 19.597 15.548  0.0000  0.0000  0.0000
 2000 352    63    59   1270 21.3317  0.0883 12.1248  4.8632  1.2608 0.61393  4.994 11.358 23.032 17.729  0.0000  0.0000  0.0000
 2000 353    64    60   1421 26.0460  0.1363 14.9271  5.8540  2.0378 0.83843  5.245 12.030 27.073 21.340  0.0000  0.0000  0.0000
 2000 354    65    61   1558 24.1824  0.1361 13.5290  5.6697  1.6517 0.82664  5.448 12.582 24.539 18.986  0.0000  0.0000  0.0000
 2000 355    66    62   1715 27.9224  0.1800 15.3800  6.4512  2.2155 1.02500  5.664 13.160 26.820 20.944  0.0000  0.0000  0.0000
 2000 356    67    63   1773 11.8937  0.1690  6.1855  2.8520  1.0775 0.44198  5.724 13.311 20.269 18.298  0.0000  0.0000  0.0000
 2000 357    68    64   1939 29.7637  0.2429 17.0646  6.2726  2.7358 1.34711  5.992 13.962 27.752 22.772  0.0000  0.0000  0.0000
 2000 358    69    65   2016 14.8333  0.1953  7.4944  3.6413  1.2192 0.60958  6.038 14.146 19.635 17.844  0.0000  0.0000  0.0000
 2000 359    70    66   2184 29.5232  0.2247 16.9837  6.2912  2.0949 1.47699  6.307 14.777 24.278 18.832  0.0000  0.0000  0.0000
 2000 360    71    67   2371 32.0188  0.3768 19.0378  5.9014  3.6881 1.73687  6.554 15.360 29.750 25.307  0.0000  0.0000  0.0000
 2000 361    72    68   2558 34.6207  0.4559 18.6480  6.7438  4.8258 1.84115  6.751 15.867 33.183 28.023  0.0000  0.0000  0.0000
 2000 362    73    69   2632 16.6104  0.4290  9.5147  2.9453  2.3271 0.90008  6.823 15.998 26.735 22.793  0.0000  0.0000  0.0000
 2000 363    74    70   2773 25.4469  0.3992 14.4491  4.8083  2.5256 1.48064  6.976 16.367 24.681 21.133  0.0000  0.0000  0.0000
 2000 364    75    71   2907 24.3999  0.3968 13.9447  4.6497  2.2906 1.43659  7.119 16.703 22.847 20.016  0.0000  0.0000  0.0000
 2000 365    76    72   3127 36.9818  0.4389 21.6419  6.8478  3.1016 2.39649  7.370 17.324 24.639 20.446  0.0000  0.0000  0.0000
 2000 366    77    73   3360 38.2375  0.5662 23.0716  6.6467  3.9518 2.65236  7.612 17.909 27.597 22.759  0.0000  0.0000  0.0000
 2001 001    78    74   3598 39.3305  0.0000 20.1311  5.6965  4.3121 5.65422  8.509 20.289 28.110 23.308  0.0000  0.0000  0.0000
 2001 002    79    75   3834 39.4147  0.0000 20.1863  5.7714  4.4245 5.42658  9.286 22.284 28.155 23.209  0.0000  0.0000  0.0000
 2001 003    80    76   4057 39.7043  0.6019 22.1800  6.5689  5.0192 2.87345  9.466 22.644 30.266 24.280  0.0000  0.0000  0.0000
 2001 004    81    77   4212 32.2317  1.1515 17.1108  5.6796  5.6747 1.99270  9.492 22.617 31.600 27.585  0.0000  0.0000  0.0000
 2001 005    82    78   4429 40.5259  1.1507 22.4949  6.6669  6.0345 2.87838  9.596 22.794 30.645 26.487  0.0000  0.0000  0.0000
 2001 006    83    79   4632 40.1407  1.2377 21.4443  7.0511  6.5872 2.64644  9.665 22.886 32.069 27.444  0.0000  0.0000  0.0000
 2001 007    84    80   4722 23.2215  0.0000 11.4685  3.7544  4.3916 1.23742  9.865 23.267 27.446 24.901  0.0000  0.0000  0.0000
 2001 008    85    81   4885 33.5139  1.1574 18.0872  6.3245  4.5888 1.86106  9.900 23.272 26.974 23.174  0.0000  0.0000  0.0000
 2001 009    86    82   5078 38.4511  1.2119 20.6764  6.9156  5.2345 2.33242  9.966 23.356 28.216 23.735  0.0000  0.0000  0.0000
 2001 010    87    83   5130 17.6038  0.3697  9.2378  3.3674  2.7652 0.12916  9.989 23.326 21.809 19.444  0.0000  0.0000  0.0000
 2001 011    88    84   5308 35.9885  0.8877 19.9055  6.6957  3.1696 2.25326 10.098 23.510 21.303 17.862  0.0000  0.0000  0.0000
 2001 012    89    85   5492 35.2717  0.8708 20.1659  6.5224  3.0161 2.52074 10.225 23.743 21.832 16.886  6.2930 17.0474 35.1216
 2001 013    90    86   5666 36.6184  1.2340 19.9234  7.1257  4.2773 2.20504 10.294 23.829 25.634 20.437  6.2144 18.8932 33.7667
 2001 014    91    87   5765 30.3483  1.6912 15.9588  5.7343  5.7531 1.04424 10.240 23.608 28.955 25.407  6.3543 19.6968 32.0891
 2001 015    92    88   5916 38.2604  1.6897 19.9675  7.3193  5.9413 1.89447 10.245 23.548 27.252 24.493  6.3809 20.0601 31.5593
 2001 016    93    89   6010 36.1948  1.7589 18.0573  7.1454  6.1134 1.36189 10.214 23.388 28.523 24.904  6.4071 20.2283 31.2272
 2001 017    94    90   6084 27.6857  1.6905 14.9172  5.9875  4.9145 0.00000 10.091 22.992 25.626 23.333  6.3691 20.3335 31.3594
 2001 018    95    91   6139 24.5192  1.6934 13.0133  5.1621  4.7102 0.00000  9.967 22.593 24.521 23.267  6.3487 20.3843 31.4365
 2001 019    96    92   6214 27.2937  1.6100 14.4517  5.9988  4.5837 0.00000  9.851 22.211 25.248 22.238  6.3181 20.3748 31.6371
 2001 020    97    93   6389 40.5174  0.1782 21.4818  7.8585  4.5425 1.97648 10.085 22.680 24.193 20.000  6.2852 20.1702 32.0471
 2001 021    98    94   6538 40.4117  1.4677 20.9956  9.1964  4.4471 1.43434 10.101 22.642 24.386 19.406  6.2636 19.9564 32.3963
 2001 022    99    95   6595 25.8275  1.6982 13.8575  5.8001  4.5326 0.00000  9.979 22.249 26.265 21.500  6.2516 19.9958 32.4318
 2001 023   100    96   6725 40.1712  1.8904 20.4615  8.9431  6.5503 0.67804  9.894 21.954 28.757 24.243  6.2781 20.0916 32.1702
 2001 024   101    97   6829 39.5596  1.8768 19.8391  8.7879  6.7202 0.60587  9.805 21.648 29.996 24.300  6.2981 20.1608 31.9762
 2001 025   102    98   6921 38.5102  2.0198 18.5718  8.8156  7.4582 0.14585  9.663 21.204 30.549 26.036  6.3396 20.2168 31.6605
 2001 026   103    99   6944 34.1738  2.0475 16.4263  7.6918  7.6263 0.00000  9.504 20.714 31.575 26.883  6.3829 20.2598 31.3473
 2001 027   104   100   6951 19.5162  1.8699 10.3025  4.5329  4.9753 0.00000  9.362 20.261 24.955 23.559  6.3739 20.3008 31.3621
 2001 028   105   101   6968 15.9852  1.5713  9.0982  3.9038  3.5800 0.00000  9.253 19.878 21.166 20.056  6.3432 20.1797 31.6756
 2001 029   106   102   7081 37.0637  1.5176 19.0263  9.2734  4.6158 0.00000  9.155 19.504 24.837 19.573  6.3218 20.0585 31.9302
 2001 030   107   103   7170 37.4773  1.6264 19.1200  9.3763  5.1695 0.00000  9.042 19.099 24.894 21.063  6.3051 20.0504 32.0431
 2001 031   108   104   7252 35.4280  1.8073 17.3450  8.6453  6.5950 0.00000  8.906 18.637 28.750 24.311  6.3166 20.1066 31.9150
 2001 032   109   105   7295 28.9878  1.8668 14.2511  6.9705  6.6881 0.00000  8.759 18.152 28.870 25.505  6.3387 20.1535 31.7294
 2001 033   110   106   7369 35.9781  1.8434 16.7600  8.7666  7.7956 0.00000  8.612 17.663 30.726 26.502  6.3668 20.1921 31.5152
 2001 034   111   107   7460 33.8473  1.5626 16.9806  8.9690  5.2251 0.00000  8.490 17.243 24.491 21.448  6.3481 20.1855 31.6386
 2001 035   112   108   7560 35.4174  1.5292 17.5242  9.2931  5.4660 0.00000  8.367 16.824 26.531 21.342  6.3328 20.1765 31.7434
 2001 036   113   109   7648 34.4543  1.6146 16.7578  8.9733  6.0891 0.00000  8.232 16.374 26.241 23.092  6.3288 20.2071 31.7382
 2001 037   114   110   7718 34.2890  1.5816 16.2904  8.8906  6.6874 0.00000  8.093 15.924 29.390 23.880  6.3315 20.2339 31.6941
 2001 038   115   111   7793 33.7225  1.6652 15.0593  8.5309  8.3934 0.00000  7.939 15.437 32.285 27.276  6.3602 20.2572 31.4917
 2001 039   116   112   7812 19.8840  1.5190 10.0962  4.3362  6.1871 0.01903  7.802 14.991 28.514 25.080  6.3700 20.2626 31.4251
 2001 040   117   113   7874 28.5411  1.2514 13.0372  6.9535  7.4148 0.09286  7.712 14.652 30.604 26.169  6.4008 20.2416 31.2536
 2001 041   118   114   7871 16.8391  1.5397  8.3985  3.0560  6.6151 0.00162  7.551 14.168 29.891 26.422  6.4087 20.2517 31.1942
 2001 042   119   115   7928 25.5019  1.3074 11.4120  5.8042  7.7526 0.05961  7.429 13.775 31.551 27.261  6.4324 20.2434 31.0540
 2001 043   120   116   7999 22.7670  0.9646 11.4951  5.8717  4.0915 0.06872  7.348 13.492 23.079 19.362  6.4310 20.1621 31.1439
 2001 044   121   117   8089 28.1154  0.9320 13.4855  7.6335  4.8391 0.08826  7.271 13.225 25.658 20.440  6.4306 20.1087 31.1997
 2001 045   122   118   8171 27.3274  1.0063 12.6941  7.2501  5.5796 0.08703  7.177 12.926 26.919 22.596  6.4349 20.0975 31.1841
 2001 046   123   119   8238 24.3304  0.9928 11.1851  6.2341  5.5013 0.09024  7.079 12.627 26.750 22.998  6.4415 20.0868 31.1541
 2001 047   124   120   8319 26.4607  0.9290 12.2330  7.1860  5.0996 0.08780  6.984 12.344 26.078 21.684  6.4432 20.0675 31.1626
 2001 048   125   121   8388 24.0120  0.9628 10.9106  6.2923  5.2867 0.07975  6.873 12.040 27.097 22.526  6.4464 20.0588 31.1510
 2001 049   126   122   8438 21.6248  1.0755  9.2591  5.2010  6.3894 0.06654  6.733 11.682 29.504 25.684  6.4571 20.0553 31.0876
 2001 050   127   123   8488 21.6591  1.0153  9.0699  5.2506  6.3872 0.07276  6.595 11.344 30.059 25.668  6.4679 20.0501 31.0257
 2001 051   128   124   8544 22.0661  0.9291  9.2548  5.5469  5.9480 0.08187  6.467 11.036 29.318 24.606  6.4763 20.0432 30.9797
 2001 052   129   125   8579 16.2757  1.0694  7.1194  3.8293  5.1233 0.02849  6.292 10.643 27.168 23.778  6.4769 20.0464 30.9731
 2001 053   130   126   8622 20.2048  1.0190  7.9335  4.7590  6.7657 0.05347  6.125 10.275 30.882 27.065  6.4869 20.0448 30.9119
 2001 054   131   127   8659 17.2218  0.9623  6.9849  3.9683  5.6098 0.04686  5.960  9.921 28.970 24.904  6.4914 20.0435 30.8854
 2001 055   132   128   8647  9.6056  1.0579  3.9611  1.6469  4.7454 0.00000  5.757  9.500 27.607 24.113  6.4884 20.0522 30.8950
 2001 056   133   129   8373  7.8278  0.9773  3.2646  1.1656  4.1629 0.00000  5.495  8.574 25.762 22.874  6.4850 20.0590 30.9098
 2001 057   134   130   8154  7.8457  0.8497  2.9261  1.0628  4.4784 0.00000  5.232  7.753 26.649 24.439  6.4843 20.0627 30.9101
 2001 058   135   131   7980  8.1068  0.7317  2.7282  1.0451  4.7534 0.00000  4.973  7.032 28.537 25.616  6.4846 20.0662 30.9053
 2001 059   136   132   7843  7.8159  0.6178  2.4945  1.0277  4.5921 0.00000  4.727  6.411 29.262 25.486  6.4838 20.0710 30.9051
 2001 060   137   133   7723  5.6346  0.5434  1.0618  0.3046  4.8675 0.00000  4.482  5.865 31.630 27.108  6.4843 20.0723 30.9007
 2001 061   138   134   7609  2.8411  0.4503  0.0000  0.0000  3.4455 0.00000  4.253  5.405 25.650 23.479  6.4843 20.0723 30.9007
 2001 062   139   135   7524  3.7645  0.4181  0.0000  0.0000  4.2896 0.00000  4.024  4.991 30.609 26.303  6.4843 20.0723 30.9007
 2001 063   140   136   7454  3.2521  0.3753  0.0000  0.0000  4.3176 0.00000  3.807  4.625 31.345 26.684  6.4843 20.0723 30.9007
 2001 064   141   137   7389  2.2379  0.3399  0.0000  0.0000  4.2448 0.00000  3.601  4.301 31.606 26.875  6.4843 20.0723 30.9007
 2001 065   142   138   7341  1.7932  0.3021  0.0000  0.0000  3.5133 0.00000  3.410  4.018 27.998 24.621  6.4843 20.0723 30.9007
 2001 066   143   139   7301  1.6196  0.2667  0.0000  0.0000  3.0657 0.00000  3.237  3.771 26.566 22.905  6.4843 20.0723 30.9007
 2001 067   144   140   7268  1.0800  0.2344  0.0000  0.0000  2.6492 0.00000  3.079  3.557 25.918 21.050  6.4843 20.0723 30.9007

*DSSAT Cropping System Model Ver. 4.6.1.000 -release      OCT 19, 2016; 15:06:25
                                                                                
*RUN   2        : UYSB                      CRGRO046 UYSB0926    1              
 MODEL          : CRGRO046 - Soybean                                            
 EXPERIMENT     : UYSB0926 SN late to create DSS                                
 DATA PATH      :                                                               
 TREATMENT  1   : UYSB                      CRGRO046                            
  
@YEAR DOY   DAS   DAP   TWAD    PHAD    CMAD    CGRD    GRAD    MRAD    CHAD   CL%D   CS%D   TGNN   TGAV    GN%D    GL%D    GC%D
 2001 293     4     0      0  0.0000  0.0000  0.0000  0.0000  0.0000 0.00000  0.000  0.000 25.701 21.205  0.0000  0.0000  0.0000
 2001 294     5     1      0  0.0000  0.0000  0.0000  0.0000  0.0000 0.00000  0.000  0.000 17.838 14.840  0.0000  0.0000  0.0000
 2001 295     6     2      0  0.0000  0.0000  0.0000  0.0000  0.0000 0.00000  0.000  0.000 17.514 13.730  0.0000  0.0000  0.0000
 2001 296     7     3      0  0.0000  0.0000  0.0000  0.0000  0.0000 0.00000  0.000  0.000 20.643 15.002  0.0000  0.0000  0.0000
 2001 297     8     4      0  0.0000  0.0000  0.0000  0.0000  0.0000 0.00000  0.000  0.000 24.462 18.605  0.0000  0.0000  0.0000
 2001 298     9     5      0  0.0000  0.0000  0.0000  0.0000  0.0000 0.00000  0.000  0.000 29.719 23.253  0.0000  0.0000  0.0000
 2001 299    10     6      8  0.0000  0.0005  0.0003  0.0001  0.0000 0.00000  3.940  7.874 22.054 20.732  0.0000  0.0000  0.0000
 2001 300    11     7      8  0.0724  0.0005  0.0444  0.0161  0.0062 0.00000  3.891  7.775 20.291 19.541  0.0000  0.0000  0.0000
 2001 301    12     8      8  0.0912  0.0005  0.0584  0.0184  0.0081 0.00000  3.847  7.680 22.667 20.880  0.0000  0.0000  0.0000
 2001 302    13     9      9  0.1046  0.0006  0.0692  0.0199  0.0090 0.00000  3.813  7.599 22.952 20.879  0.0000  0.0000  0.0000
 2001 303    14    10     10  0.2063  0.0005  0.1282  0.0447  0.0108 0.00000  3.779  7.584 20.378 17.625  0.0000  0.0000  0.0000
 2001 304    15    11     12  0.2276  0.0005  0.1471  0.0468  0.0116 0.00000  3.755  7.576 20.718 17.071  0.0000  0.0000  0.0000
 2001 305    16    12     13  0.2575  0.0006  0.1676  0.0516  0.0136 0.00000  3.732  7.569 22.030 17.166  0.0000  0.0000  0.0000
 2001 306    17    13     15  0.2296  0.0006  0.1497  0.0460  0.0119 0.00000  3.712  7.551 20.184 16.428  0.0000  0.0000  0.0000
 2001 307    18    14     17  0.2680  0.0007  0.1758  0.0537  0.0138 0.00000  3.694  7.541 20.729 16.329  0.0000  0.0000  0.0000
 2001 308    19    15     19  0.3103  0.0008  0.2035  0.0615  0.0177 0.00000  3.672  7.526 22.006 17.534  0.0000  0.0000  0.0000
 2001 309    20    16     21  0.3660  0.0012  0.2364  0.0710  0.0272 0.00000  3.640  7.495 26.353 20.485  0.0000  0.0000  0.0000
 2001 310    21    17     22  0.2400  0.0014  0.1432  0.0545  0.0231 0.00000  3.620  7.405 25.216 21.745  0.0000  0.0000  0.0000
 2001 311    22    18     23  0.1476  0.0010  0.0865  0.0376  0.0113 0.00000  3.615  7.341 17.402 16.399  0.0000  0.0000  0.0000
 2001 312    23    19     25  0.3483  0.0011  0.2168  0.0793  0.0207 0.00000  3.619  7.320 20.523 17.551  0.0000  0.0000  0.0000
 2001 313    24    20     28  0.4465  0.0013  0.2985  0.0905  0.0273 0.00000  3.648  7.319 22.431 18.206  0.0000  0.0000  0.0000
 2001 314    25    21     30  0.3604  0.0018  0.2349  0.0696  0.0314 0.00000  3.652  7.275 24.143 21.207  0.0000  0.0000  0.0000
 2001 315    26    22     34  0.7463  0.0017  0.4554  0.1608  0.0462 0.00000  3.641  7.319 23.999 19.416  0.0000  0.0000  0.0000
 2001 316    27    23     39  0.8249  0.0022  0.5057  0.1779  0.0593 0.00000  3.643  7.326 25.963 21.022  0.0000  0.0000  0.0000
 2001 317    28    24     42  0.4858  0.0023  0.2988  0.1018  0.0383 0.00000  3.621  7.291 22.810 19.766  0.0000  0.0000  0.0000
 2001 318    29    25     48  0.9056  0.0026  0.5714  0.1835  0.0627 0.00000  3.608  7.318 23.253 20.567  0.0000  0.0000  0.0000
 2001 319    30    26     55  1.1687  0.0027  0.7451  0.2408  0.0718 0.00000  3.606  7.366 23.426 19.379  0.0000  0.0000  0.0000
 2001 320    31    27     61  0.9098  0.0022  0.5816  0.1978  0.0443 0.00000  3.610  7.381 18.819 15.774  0.0000  0.0000  0.0000
 2001 321    32    28     68  1.2001  0.0026  0.7576  0.2680  0.0621 0.00000  3.625  7.399 22.213 16.302  0.0000  0.0000  0.0000
 2001 322    33    29     78  1.5968  0.0042  0.9905  0.3606  0.1120 0.00000  3.629  7.401 26.580 20.310  0.0000  0.0000  0.0000
 2001 323    34    30     87  1.6065  0.0055  0.9887  0.3513  0.1346 0.00000  3.615  7.383 27.861 22.308  0.0000  0.0000  0.0000
 2001 324    35    31     99  2.0429  0.0066  1.2511  0.4364  0.1883 0.00000  3.600  7.378 30.191 23.920  0.0000  0.0000  0.0000
 2001 325    36    32    108  1.4995  0.0078  0.9207  0.3146  0.1442 0.00000  3.566  7.332 25.811 23.231  0.0000  0.0000  0.0000
 2001 326    37    33    121  2.2537  0.0085  1.3783  0.4877  0.2033 0.00000  3.554  7.317 27.927 23.556  0.0000  0.0000  0.0000
 2001 327    38    34    138  2.7637  0.0103  1.6665  0.5823  0.2919 0.00000  3.540  7.307 31.275 25.971  0.0000  0.0000  0.0000
 2001 328    39    35    142  1.1067  0.0065  0.6887  0.2478  0.0796 0.00000  3.526  7.275 19.217 16.637  0.0000  0.0000  0.0000
 2001 329    40    36    152  1.5412  0.0053  0.9795  0.3428  0.0802 0.00000  3.526  7.277 18.046 14.749  0.0000  0.0000  0.0000
 2001 330    41    37    158  1.3316  0.0083  0.8306  0.2821  0.1049 0.00000  3.504  7.242 19.715 18.174  0.0000  0.0000  0.0000
 2001 331    42    38    180  3.7381  0.0101  2.2834  0.8616  0.2472 0.00000  3.544  7.250 23.551 20.253  0.0000  0.0000  0.0000
 2001 332    43    39    204  3.9581  0.0096  2.4421  0.9158  0.2206 0.00000  3.576  7.268 22.041 17.919  0.0000  0.0000  0.0000
 2001 333    44    40    228  4.0219  0.0107  2.6048  0.8852  0.2234 0.00000  3.619  7.277 21.511 17.568  0.0000  0.0000  0.0000
 2001 334    45    41    236  1.6024  0.0091  0.8805  0.4002  0.1039 0.00000  3.594  7.243 16.605 15.028  0.0000  0.0000  0.0000
 2001 335    46    42    269  5.3552  0.0133  3.2761  1.2270  0.3090 0.00000  3.609  7.261 22.608 18.378  0.0000  0.0000  0.0000
 2001 336    47    43    306  6.2818  0.0163  3.8507  1.4190  0.3858 0.00000  3.622  7.275 23.616 19.135  0.0000  0.0000  0.0000
 2001 337    48    44    325  3.2013  0.0160  1.9535  0.7167  0.2166 0.00447  3.619  7.277 19.785 17.348  0.0000  0.0000  0.0000
 2001 338    49    45    347  3.6750  0.0185  2.2251  0.8265  0.2620 0.01450  3.637  7.344 21.185 18.209  0.0000  0.0000  0.0000
 2001 339    50    46    381  5.7342  0.0224  3.4582  1.2944  0.3970 0.03897  3.706  7.562 21.795 19.644  0.0000  0.0000  0.0000
 2001 340    51    47    432  8.5958  0.0264  5.1642  1.9436  0.5752 0.08401  3.844  7.982 23.626 20.221  0.0000  0.0000  0.0000
 2001 341    52    48    496 10.6586  0.0345  6.3431  2.4348  0.7937 0.13719  4.022  8.515 26.465 21.554  0.0000  0.0000  0.0000
 2001 342    53    49    544  8.0340  0.0237  4.8066  1.9391  0.3711 0.11987  4.147  8.897 17.910 15.258  0.0000  0.0000  0.0000
 2001 343    54    50    595  8.3643  0.0221  5.0116  2.0228  0.3602 0.13867  4.274  9.280 19.348 13.578  0.0000  0.0000  0.0000
 2001 344    55    51    668 12.0441  0.0406  7.1011  2.8612  0.6980 0.22698  4.443  9.787 22.784 17.910  0.0000  0.0000  0.0000
 2001 345    56    52    738 11.8372  0.0475  6.8936  2.8136  0.7178 0.25012  4.593 10.241 23.065 17.869  0.0000  0.0000  0.0000
 2001 346    57    53    813 13.1663  0.0767  7.4072  3.0407  1.1535 0.31155  4.737 10.688 27.360 22.415  0.0000  0.0000  0.0000
 2001 347    58    54    892 14.2212  0.0963  7.8767  3.2537  1.3554 0.38189  4.902 11.163 26.914 23.725  0.0000  0.0000  0.0000
 2001 348    59    55    988 16.9277  0.1052  9.5892  3.8134  1.4834 0.52606  5.123 11.768 25.774 23.015  0.0000  0.0000  0.0000
 2001 349    60    56   1103 19.9831  0.1069 11.6907  4.3669  1.4731 0.70756  5.425 12.506 24.495 20.984  0.0000  0.0000  0.0000
 2001 350    61    57   1221 19.8220  0.1164 11.5890  4.3303  1.3955 0.76340  5.670 13.157 24.117 19.853  0.0000  0.0000  0.0000
 2001 351    62    58   1369 23.9810  0.1445 14.6172  4.8912  1.8046 1.03669  5.967 13.912 26.252 20.734  0.0000  0.0000  0.0000
 2001 352    63    59   1519 25.3513  0.1732 14.5602  5.4689  1.9481 1.14312  6.218 14.583 25.925 20.873  0.0000  0.0000  0.0000
 2001 353    64    60   1620 20.5804  0.2291  9.1821  5.3048  2.0956 0.77801  6.252 14.844 28.125 23.073  0.0000  0.0000  0.0000
 2001 354    65    61   1714 20.3100  0.2734  9.7943  4.6758  2.4261 0.89118  6.386 15.170 29.365 24.958  0.0000  0.0000  0.0000
 2001 355    66    62   1757 10.8329  0.1902  6.4242  2.1566  1.0127 0.59400  6.526 15.403 19.775 18.091  0.0000  0.0000  0.0000
 2001 356    67    63   1920 27.6484  0.2378 15.7595  5.7560  2.0719 1.57048  6.796 16.096 23.210 20.272  0.0000  0.0000  0.0000
 2001 357    68    64   2086 29.1877  0.2411 15.1054  6.6607  2.0479 1.56697  6.977 16.665 24.620 18.744  0.0000  0.0000  0.0000
 2001 358    69    65   2262 31.3027  0.3081 17.7023  6.4857  2.4680 1.93167  7.283 17.334 25.265 20.320  0.0000  0.0000  0.0000
 2001 359    70    66   2467 33.0132  0.3695 20.0544  6.1492  2.8211 2.27176  7.566 18.003 26.358 21.127  0.0000  0.0000  0.0000
 2001 360    71    67   2675 33.9423  0.0000 19.4583  5.5016  3.3480 2.81046  8.037 19.157 28.284 22.587  0.0000  0.0000  0.0000
 2001 361    72    68   2882 34.2871  0.0000 18.8440  5.1679  4.0092 3.46663  8.616 20.602 29.723 24.671  0.0000  0.0000  0.0000
 2001 362    73    69   3088 34.1725  0.0000 18.5424  5.0784  3.9412 3.75370  9.201 22.049 29.109 24.021  0.0000  0.0000  0.0000
 2001 363    74    70   3285 33.7027  0.0000 18.4391  5.1225  4.0885 3.21670  9.630 23.043 28.481 24.396  0.0000  0.0000  0.0000
 2001 364    75    71   3470 33.8211  0.8774 18.8714  6.1604  4.4842 2.40843  9.707 23.143 29.720 25.205  0.0000  0.0000  0.0000
 2001 365    76    72   3617 29.0133  0.9320 15.7072  5.3092  4.2510 1.98993  9.753 23.170 29.645 25.202  0.0000  0.0000  0.0000
 2002 001    77    73   3837 37.4465  0.0000 19.6089  5.8346  4.1032 4.34650 10.303 24.496 26.851 22.694  0.0000  0.0000  0.0000
 2002 002    78    74   4039 35.7975  0.2969 19.7239  5.9838  4.1937 2.72677 10.523 24.925 26.783 22.984  0.0000  0.0000  0.0000
 2002 003    79    75   4260 38.3657  0.0000 20.4510  6.2845  4.1742 3.64627 10.902 25.763 25.968 22.133  0.0000  0.0000  0.0000
 2002 004    80    76   4448 35.5509  1.0894 19.4322  6.7789  4.1223 2.55762 10.953 25.801 26.380 22.042  0.0000  0.0000  0.0000
 2002 005    81    77   4512 16.9348  0.4589  9.0469  3.2898  2.6865 0.39222 10.983 25.780 21.498 20.422  0.0000  0.0000  0.0000
 2002 006    82    78   4654 29.4076  1.0965 15.8586  5.7220  3.6270 1.65672 10.994 25.722 23.874 21.401  0.0000  0.0000  0.0000
 2002 007    83    79   4841 35.1174  0.9535 19.4818  6.5531  3.2508 2.47198 11.085 25.845 22.443 18.822  0.0000  0.0000  0.0000
 2002 008    84    80   5059 39.2868  1.1398 22.4029  7.0164  4.1532 2.89842 11.182 25.985 26.339 20.317  6.1781 19.6619 33.2252
 2002 009    85    81   5240 36.9122  1.3313 19.9970  7.1169  4.3997 2.42842 11.232 26.015 25.650 21.528  6.1923 19.9211 32.8773
 2002 010    86    82   5398 37.8533  1.4793 20.1261  7.3187  4.9370 2.37090 11.266 26.009 27.292 22.489  6.2314 20.2325 32.3212
 2002 011    87    83   5537 36.0107  1.6945 18.1665  7.3119  5.6340 1.63222 11.239 25.852 28.765 24.428  6.3597 20.4275 31.3243
 2002 012    88    84   5707 38.9971  1.7959 20.7542  7.3854  6.4426 1.89822 11.223 25.726 30.446 25.535  6.4324 20.4637 30.8336
 2002 013    89    85   5836 37.4140  1.9172 18.3745  7.5622  6.7457 1.50021 11.174 25.520 30.865 26.277  6.4839 20.4772 30.4983
 2002 014    90    86   5906 22.0941  1.1275 12.2666  4.7266  3.2636 0.08889 11.124 25.298 22.505 19.351  6.3767 19.9904 31.6553
 2002 015    91    87   6042 32.0947  1.2626 16.3615  7.4301  3.1496 0.90871 11.106 25.170 21.627 17.218  6.3464 19.2535 32.5814
 2002 016    92    88   6172 33.5850  1.3530 17.6055  7.4062  3.4131 1.31654 11.110 25.099 22.269 17.718  6.3225 18.9392 33.0454
 2002 017    93    89   6292 33.8723  1.5186 17.6537  7.5117  3.8952 1.16657 11.090 24.968 23.770 18.968  6.2922 18.9180 33.2556
 2002 018    94    90   6414 35.9847  1.5740 19.1843  8.0121  4.0382 1.05168 11.056 24.806 23.299 19.106  6.2680 18.9235 33.4016
 2002 019    95    91   6530 38.1343  1.7960 19.3231  8.5442  5.0551 1.15270 11.008 24.613 26.602 21.120  6.2508 19.1721 33.2607
 2002 020    96    92   6600 34.7640  2.1331 17.1268  7.2892  7.1134 0.53396 10.882 24.226 32.151 26.023  6.3132 19.4506 32.5919
 2002 021    97    93   6653 29.5053  2.1505 15.1581  6.4562  5.8843 0.00000 10.714 23.731 27.761 24.536  6.3359 19.6805 32.2198
 2002 022    98    94   6738 35.8360  2.1661 17.4626  8.0375  7.0590 0.12708 10.553 23.251 30.506 25.849  6.3737 19.8374 31.8271
 2002 023    99    95   6813 33.9984  2.0870 16.8648  7.6361  6.7561 0.00000 10.389 22.759 30.829 25.204  6.3912 19.9511 31.6036
 2002 024   100    96   6805 23.2292  2.1064 12.1273  5.0550  5.5991 0.00000 10.221 22.258 28.042 24.531  6.3955 20.0433 31.4850
 2002 025   101    97   6868 34.1765  2.0513 17.0383  7.9451  6.2459 0.00000 10.058 21.760 27.911 24.328  6.3960 20.1192 31.4058
 2002 026   102    98   6889 21.7857  1.8813 11.6775  4.9729  4.6411 0.00000  9.910 21.299 24.825 22.318  6.3715 20.1585 31.5195
 2002 027   103    99   6883 26.7663  1.9253 13.4425  6.4448  5.2867 0.00000  9.759 20.820 25.651 23.215  6.3613 20.2070 31.5349
 2002 028   104   100   6953 35.5379  1.8771 17.5072  8.5088  6.2845 0.00000  9.608 20.340 29.128 23.828  6.3603 20.2487 31.4994
 2002 029   105   101   7020 35.0919  1.8744 16.9887  8.4173  6.7834 0.00000  9.453 19.852 30.742 24.726  6.3700 20.2817 31.4061
 2002 030   106   102   7076 33.5495  1.8736 16.2996  8.2632  6.4662 0.00000  9.295 19.357 29.085 24.466  6.3753 20.3101 31.3445
 2002 031   107   103   7118 28.7911  1.8078 14.3359  7.1012  5.6196 0.00000  9.142 18.870 26.487 23.408  6.3679 20.3339 31.3667
 2002 032   108   104   7193 33.9968  1.6098 16.9925  8.7354  4.9402 0.00000  9.008 18.430 24.155 21.005  6.3463 20.2902 31.5451
 2002 033   109   105   7283 30.4136  1.4216 15.7960  8.3804  3.9292 0.00000  8.891 18.035 22.927 18.452  6.3313 20.0950 31.8345
 2002 034   110   106   7369 29.2028  1.3764 15.1010  8.1214  3.7499 0.00000  8.776 17.648 22.565 17.948  6.3211 19.8939 32.0995
 2002 035   111   107   7462 32.0169  1.5045 16.1444  8.6350  4.8030 0.00000  8.645 17.217 25.174 20.343  6.3070 19.8723 32.2088
 2002 036   112   108   7522 24.9013  1.3302 12.6526  6.5069  4.9323 0.06924  8.548 16.862 26.026 21.589  6.3163 19.8622 32.1611
 2002 037   113   109   7577 24.4203  1.2502 12.4251  6.3257  4.8097 0.08340  8.465 16.531 24.837 21.438  6.3271 19.8424 32.1130
 2002 038   114   110   7646 27.3393  1.1705 13.7187  7.3915  4.7940 0.09094  8.389 16.221 24.674 20.882  6.3358 19.8076 32.0938
 2002 039   115   111   7703 24.3948  1.2458 12.3472  6.3080  4.9129 0.07168  8.294 15.871 24.801 21.581  6.3418 19.8023 32.0616
 2002 040   116   112   7723 14.4670  1.2854  8.4457  3.4703  3.4764 0.00836  8.168 15.469 21.386 18.883  6.3368 19.7540 32.1411
 2002 041   117   113   7786 26.0303  1.1899 12.7066  6.7633  5.3339 0.08118  8.072 15.124 25.365 22.326  6.3458 19.7615 32.0771
 2002 042   118   114   7862 26.0754  1.1355 12.5828  6.7613  5.2577 0.08140  7.974 14.789 26.647 21.856  6.3525 19.7613 32.0355
 2002 043   119   115   7900 16.7608  1.3086  8.7778  3.8760  4.5473 0.02089  7.827 14.358 23.725 21.831  6.3507 19.7732 32.0347
 2002 044   120   116   7966 24.6728  1.1155 11.4140  6.2555  5.7808 0.09219  7.720 14.020 27.572 23.605  6.3645 19.7781 31.9435
 2002 045   121   117   8033 25.4349  1.1442 11.4188  6.4421  6.3492 0.08258  7.598 13.660 29.457 24.741  6.3802 19.7856 31.8379
 2002 046   122   118   8096 24.1453  1.1020 10.8490  6.1269  5.9631 0.08277  7.474 13.307 28.654 24.188  6.3924 19.7909 31.7563
 2002 047   123   119   8166 22.8868  0.9243 10.7542  6.2107  4.4018 0.09223  7.373 13.017 24.359 20.644  6.3969 19.7656 31.7541
 2002 048   124   120   8235 22.3670  0.8846 10.5389  6.2092  4.0983 0.08930  7.271 12.736 24.046 19.832  6.4005 19.7272 31.7695
 2002 049   125   121   8297 20.6861  0.9592  9.7642  5.6660  4.1046 0.06410  7.142 12.409 24.410 20.126  6.4013 19.7046 31.7874
 2002 050   126   122   8338 17.4063  1.0570  7.9001  4.2577  4.7087 0.05200  6.984 12.033 26.494 22.424  6.4037 19.7092 31.7673
 2002 051   127   123   8361 14.2562  1.1110  6.4801  3.1712  4.6065 0.03092  6.803 11.619 25.714 22.894  6.4049 19.7173 31.7521
 2002 052   128   124   8410 18.3745  1.0508  8.3446  4.4685  4.4954 0.02932  6.625 11.220 24.809 21.991  6.4036 19.7254 31.7521
 2002 053   129   125   8461 17.7620  1.0511  8.4220  3.0299  4.6866 0.02370  6.437 10.812 25.839 22.628  6.3349 19.8777 32.0294
 2002 054   130   126   8239 15.2470  0.9985  7.2730  3.4439  3.6671 0.00000  6.174  9.883 23.776 19.960  6.2988 19.9359 32.1965
 2002 055   131   127   8062 10.3092  0.7318  5.4846  2.1841  2.2510 0.00000  5.951  9.123 20.150 15.586  6.2575 19.9536 32.4372
 2002 056   132   128   7914 11.1272  0.7136  4.8577  2.6452  3.4889 0.00000  5.705  8.414 27.266 19.958  6.2540 19.9516 32.4612
 2002 057   133   129   7780  8.4835  0.7022  2.8806  1.2927  4.7739 0.00000  5.433  7.747 31.053 25.600  6.2561 19.9562 32.4430
 2002 058   134   130   7665  6.6142  0.6171  1.8814  0.6272  4.7450 0.00000  5.168  7.157 31.813 26.291  6.2578 19.9592 32.4293
 2002 059   135   131   7557  4.1148  0.5582  0.0025  0.0007  4.6699 0.00000  4.889  6.628 31.392 27.224  6.2578 19.9592 32.4292
 2002 060   136   132   7482  3.7323  0.4198  1.2911  0.3704  2.5556 0.00000  4.679  6.207 23.356 19.581  6.2576 19.9566 32.4337
 2002 061   137   133   7417  3.1144  0.3880  0.5761  0.1653  2.7849 0.00000  4.465  5.827 26.400 20.455  6.2574 19.9562 32.4349
 2002 062   138   134   7359  2.3909  0.3808  0.0000  0.0000  3.5181 0.00000  4.239  5.469 29.737 23.901  6.2574 19.9562 32.4349
 2002 063   139   135   7304  1.5867  0.3711  0.0000  0.0000  3.9348 0.00000  4.011  5.131 30.021 26.215  6.2574 19.9562 32.4349
 2002 064   140   136   7263  0.6727  0.3085  0.0000  0.0000  2.6429 0.00000  3.815  4.847 22.612 21.509  6.2574 19.9562 32.4349
 2002 065   141   137   7228  0.8009  0.2947  0.0000  0.0000  2.8804 0.00000  3.623  4.583 25.472 22.486  6.2574 19.9562 32.4349

*DSSAT Cropping System Model Ver. 4.6.1.000 -release      OCT 19, 2016; 15:06:25
                                                                                
*RUN   3        : UYSB                      CRGRO046 UYSB0926    1              
 MODEL          : CRGRO046 - Soybean                                            
 EXPERIMENT     : UYSB0926 SN late to create DSS                                
 DATA PATH      :                                                               
 TREATMENT  1   : UYSB                      CRGRO046                            
  
@YEAR DOY   DAS   DAP   TWAD    PHAD    CMAD    CGRD    GRAD    MRAD    CHAD   CL%D   CS%D   TGNN   TGAV    GN%D    GL%D    GC%D
 2002 293     4     0      0  0.0000  0.0000  0.0000  0.0000  0.0000 0.00000  0.000  0.000 23.822 19.611  0.0000  0.0000  0.0000
 2002 294     5     1      0  0.0000  0.0000  0.0000  0.0000  0.0000 0.00000  0.000  0.000 12.099  9.957  0.0000  0.0000  0.0000
 2002 295     6     2      0  0.0000  0.0000  0.0000  0.0000  0.0000 0.00000  0.000  0.000 16.820 11.858  0.0000  0.0000  0.0000
 2002 296     7     3      0  0.0000  0.0000  0.0000  0.0000  0.0000 0.00000  0.000  0.000 20.614 14.901  0.0000  0.0000  0.0000
 2002 297     8     4      0  0.0000  0.0000  0.0000  0.0000  0.0000 0.00000  0.000  0.000 24.788 21.395  0.0000  0.0000  0.0000
 2002 298     9     5      0  0.0000  0.0000  0.0000  0.0000  0.0000 0.00000  0.000  0.000 21.593 19.164  0.0000  0.0000  0.0000
 2002 299    10     6      0  0.0000  0.0000  0.0000  0.0000  0.0000 0.00000  0.000  0.000 26.091 22.196  0.0000  0.0000  0.0000
 2002 300    11     7      8  0.0000  0.0006  0.0004  0.0002  0.0000 0.00000  3.935  7.865 23.846 21.774  0.0000  0.0000  0.0000
 2002 301    12     8      8  0.1504  0.0006  0.0956  0.0312  0.0124 0.00000  3.887  7.762 25.565 22.313  0.0000  0.0000  0.0000
 2002 302    13     9      9  0.0856  0.0003  0.0522  0.0202  0.0046 0.00000  3.859  7.710 17.235 14.876  0.0000  0.0000  0.0000
 2002 303    14    10      9  0.0739  0.0003  0.0461  0.0166  0.0045 0.00000  3.833  7.660 18.443 14.867  0.0000  0.0000  0.0000
 2002 304    15    11     11  0.2039  0.0005  0.1320  0.0421  0.0110 0.00000  3.804  7.634 21.502 17.569  0.0000  0.0000  0.0000
 2002 305    16    12     12  0.2196  0.0005  0.1425  0.0444  0.0122 0.00000  3.776  7.609 21.636 17.773  0.0000  0.0000  0.0000
 2002 306    17    13     14  0.2560  0.0008  0.1654  0.0503  0.0174 0.00000  3.739  7.574 23.827 20.179  0.0000  0.0000  0.0000
 2002 307    18    14     14  0.0892  0.0005  0.0560  0.0194  0.0063 0.00000  3.714  7.522 16.867 15.544  0.0000  0.0000  0.0000
 2002 308    19    15     15  0.1225  0.0004  0.0785  0.0270  0.0059 0.00000  3.704  7.499 15.211 13.243  0.0000  0.0000  0.0000
 2002 309    20    16     16  0.2007  0.0004  0.1320  0.0415  0.0083 0.00000  3.695  7.501 17.512 13.289  0.0000  0.0000  0.0000
 2002 310    21    17     18  0.2560  0.0006  0.1685  0.0511  0.0124 0.00000  3.680  7.500 19.788 15.243  0.0000  0.0000  0.0000
 2002 311    22    18     20  0.3475  0.0010  0.2266  0.0664  0.0226 0.00000  3.651  7.486 24.037 19.097  0.0000  0.0000  0.0000
 2002 312    23    19     22  0.3822  0.0013  0.2459  0.0722  0.0303 0.00000  3.615  7.453 26.285 21.452  0.0000  0.0000  0.0000
 2002 313    24    20     23  0.1880  0.0012  0.1118  0.0450  0.0155 0.00000  3.605  7.379 19.992 18.452  0.0000  0.0000  0.0000
 2002 314    25    21     25  0.2366  0.0008  0.1424  0.0603  0.0118 0.00000  3.623  7.342 16.726 14.256  0.0000  0.0000  0.0000
 2002 315    26    22     26  0.2061  0.0012  0.1247  0.0469  0.0162 0.00000  3.609  7.288 21.323 17.563  0.0000  0.0000  0.0000
 2002 316    27    23     29  0.5956  0.0014  0.3753  0.1275  0.0367 0.00000  3.616  7.314 24.944 18.677  0.0000  0.0000  0.0000
 2002 317    28    24     34  0.6780  0.0019  0.4213  0.1407  0.0530 0.00000  3.609  7.323 27.936 21.633  0.0000  0.0000  0.0000
 2002 318    29    25     37  0.6707  0.0025  0.4093  0.1410  0.0619 0.00000  3.592  7.300 28.227 23.678  0.0000  0.0000  0.0000
 2002 319    30    26     41  0.6299  0.0026  0.3864  0.1347  0.0536 0.00000  3.575  7.274 24.148 22.214  0.0000  0.0000  0.0000
 2002 320    31    27     47  1.0242  0.0031  0.6252  0.2161  0.0925 0.00000  3.571  7.288 28.677 24.235  0.0000  0.0000  0.0000
 2002 321    32    28     51  0.6226  0.0036  0.3757  0.1299  0.0667 0.00000  3.536  7.236 26.588 23.973  0.0000  0.0000  0.0000
 2002 322    33    29     59  1.3250  0.0039  0.8156  0.2837  0.1143 0.00000  3.535  7.273 27.300 23.932  0.0000  0.0000  0.0000
 2002 323    34    30     66  1.2084  0.0039  0.7656  0.2565  0.0938 0.00000  3.570  7.277 25.989 21.546  0.0000  0.0000  0.0000
 2002 324    35    31     71  0.8483  0.0044  0.5438  0.1709  0.0760 0.00000  3.572  7.242 23.629 21.623  0.0000  0.0000  0.0000
 2002 325    36    32     80  1.6150  0.0041  0.9896  0.3532  0.1021 0.00000  3.564  7.293 22.791 19.638  0.0000  0.0000  0.0000
 2002 326    37    33     93  1.9456  0.0042  1.2391  0.4121  0.1087 0.00000  3.570  7.352 22.804 18.110  0.0000  0.0000  0.0000
 2002 327    38    34    106  2.3021  0.0069  1.4171  0.4779  0.1953 0.00000  3.567  7.361 28.824 23.127  0.0000  0.0000  0.0000
 2002 328    39    35    118  2.0579  0.0095  1.2814  0.4038  0.2160 0.00000  3.583  7.315 28.058 25.585  0.0000  0.0000  0.0000
 2002 329    40    36    125  1.4681  0.0085  0.9339  0.2861  0.1356 0.00000  3.572  7.273 23.837 21.830  0.0000  0.0000  0.0000
 2002 330    41    37    142  2.9070  0.0099  1.7318  0.6034  0.2498 0.00000  3.544  7.286 26.967 23.455  0.0000  0.0000  0.0000
 2002 331    42    38    155  2.2801  0.0117  1.3312  0.4964  0.2300 0.00000  3.538  7.225 27.847 24.012  0.0000  0.0000  0.0000
 2002 332    43    39    164  1.5807  0.0075  0.9643  0.3551  0.1028 0.00000  3.538  7.197 18.431 16.925  0.0000  0.0000  0.0000
 2002 333    44    40    175  2.0115  0.0106  1.2102  0.4416  0.1653 0.00000  3.532  7.157 22.693 20.292  0.0000  0.0000  0.0000
 2002 334    45    41    202  4.4220  0.0000  2.6926  0.7776  0.3898 0.18090  5.199  8.636 27.443 24.110  0.0000  0.0000  0.0000
 2002 335    46    42    213  2.2319  0.0138  1.4074  0.4801  0.1610 0.00130  5.081  8.502 19.568 18.421  0.0000  0.0000  0.0000
 2002 336    47    43    249  5.9489  0.0155  3.6882  1.3041  0.3490 0.02047  4.926  8.526 22.793 19.316  0.0000  0.0000  0.0000
 2002 337    48    44    288  6.1874  0.0000  3.5073  0.9875  0.4291 0.69236  6.734 14.181 25.026 20.832  0.0000  0.0000  0.0000
 2002 338    49    45    305  3.7067  0.0000  2.1531  0.5863  0.2747 0.37897  7.509 16.528 20.570 19.423  0.0000  0.0000  0.0000
 2002 339    50    46    344  6.5274  0.0000  3.1031  0.7659  0.5902 1.49877 10.586 25.056 26.740 23.908  0.0000  0.0000  0.0000
 2002 340    51    47    370  4.6450  0.0783  2.7726  0.9587  0.4512 0.07692 10.077 23.823 24.996 22.845  0.0000  0.0000  0.0000
 2002 341    52    48    409  6.6605  0.0658  3.8455  1.4540  0.4652 0.12651  9.500 22.564 23.328 19.922  0.0000  0.0000  0.0000
 2002 342    53    49    453  8.5836  0.0547  3.3821  2.3854  0.4499 0.12513  8.780 21.502 21.115 17.136  0.0000  0.0000  0.0000
 2002 343    54    50    515 11.7964  0.0767  5.9901  2.7991  0.7724 0.25367  8.391 20.531 23.757 20.424  0.0000  0.0000  0.0000
 2002 344    55    51    554  7.7780  0.0789  4.1420  1.8232  0.5534 0.19644  8.262 20.053 21.992 19.555  0.0000  0.0000  0.0000
 2002 345    56    52    634 14.4792  0.1078  7.9702  3.2119  1.1780 0.42893  8.078 19.485 26.399 23.174  0.0000  0.0000  0.0000
 2002 346    57    53    714 14.2544  0.1086  7.8791  3.2064  1.0521 0.47064  7.975 19.164 24.613 21.424  0.0000  0.0000  0.0000
 2002 347    58    54    787 13.0130  0.1187  7.1460  3.0126  0.9907 0.46865  7.922 18.987 23.934 21.067  0.0000  0.0000  0.0000
 2002 348    59    55    871 15.6240  0.1567  8.3527  3.5650  1.4704 0.61372  7.904 18.901 27.728 24.037  0.0000  0.0000  0.0000
 2002 349    60    56    958 16.4195  0.1810  8.6942  3.7183  1.6547 0.70149  7.921 18.910 28.295 24.784  0.0000  0.0000  0.0000
 2002 350    61    57   1076 20.8744  0.1919 11.9712  4.3857  1.8493 1.03963  8.080 19.159 26.756 23.674  0.0000  0.0000  0.0000
 2002 351    62    58   1199 20.9020  0.1960 11.9208  4.4478  1.6607 1.09139  8.191 19.414 25.150 21.782  0.0000  0.0000  0.0000
 2002 352    63    59   1344 24.2048  0.2094 13.9956  5.0770  1.8134 1.32913  8.341 19.761 25.998 20.875  0.0000  0.0000  0.0000
 2002 353    64    60   1385  9.6871  0.1991  4.1228  2.6463  0.8751 0.36309  8.252 19.661 20.469 18.498  0.0000  0.0000  0.0000
 2002 354    65    61   1504 22.1265  0.2431 11.3967  5.1350  1.7107 1.17846  8.353 19.927 23.830 20.677  0.0000  0.0000  0.0000
 2002 355    66    62   1650 26.6245  0.2685 14.0484  5.8988  2.0291 1.54717  8.518 20.320 25.359 20.665  0.0000  0.0000  0.0000
 2002 356    67    63   1702 13.2834  0.3695  7.5702  2.4321  1.7849 0.80319  8.647 20.409 27.531 23.840  0.0000  0.0000  0.0000
 2002 357    68    64   1755 10.4279  0.1842  4.7496  2.6570  0.7372 0.46482  8.603 20.407 17.409 15.009  0.0000  0.0000  0.0000
 2002 358    69    65   1879 21.9874  0.2487 11.3660  4.9154  1.4338 1.35875  8.698 20.720 21.657 17.501  0.0000  0.0000  0.0000
 2002 359    70    66   2046 29.4195  0.3310 16.6333  5.7592  2.2119 2.12115  8.998 21.302 25.205 19.830  0.0000  0.0000  0.0000
 2002 360    71    67   2233 30.1539  0.4530 18.0579  5.3702  2.9584 2.40337  9.233 21.817 28.171 22.975  0.0000  0.0000  0.0000
 2002 361    72    68   2414 30.8573  0.0000 16.9272  4.8750  3.8661 2.60905  9.641 22.749 31.817 25.941  0.0000  0.0000  0.0000
 2002 362    73    69   2482 14.5914  0.6384  7.3628  3.0433  2.3565 0.77004  9.569 22.592 26.428 24.349  0.0000  0.0000  0.0000
 2002 363    74    70   2548 14.7742  0.6647  7.6830  2.9125  2.5016 0.79574  9.525 22.464 27.574 24.815  0.0000  0.0000  0.0000
 2002 364    75    71   2664 21.6211  0.6304 12.1953  3.9434  2.7547 1.53606  9.623 22.616 26.933 23.529  0.0000  0.0000  0.0000
 2002 365    76    72   2753 17.2130  0.5814  9.9321  3.1912  2.1489 1.05900  9.675 22.661 23.833 21.503  0.0000  0.0000  0.0000
 2003 001    77    73   2899 25.2964  0.0000 12.5095  3.8948  2.8044 3.58326 10.379 24.406 25.072 22.312  0.0000  0.0000  0.0000
 2003 002    78    74   3069 28.3359  0.0000 12.1949  3.8848  2.9530 6.35226 11.632 27.600 24.951 21.868  0.0000  0.0000  0.0000
 2003 003    79    75   3144 16.3417  0.7506  9.1186  3.1325  2.2718 0.69257 11.615 27.447 24.083 21.359  0.0000  0.0000  0.0000
 2003 004    80    76   3342 32.7105  0.0000 12.6032  3.9209  3.9615 8.89702 13.267 31.557 28.100 24.085  0.0000  0.0000  0.0000
 2003 005    81    77   3515 31.4465  0.0000 13.7342  4.1458  4.0247 6.46942 14.343 34.030 29.302 23.961  0.0000  0.0000  0.0000
 2003 006    82    78   3691 32.9566  0.0000 16.3331  5.1190  3.5508 4.60518 14.969 35.301 25.764 21.928  6.2222 20.2763 32.3350
 2003 007    83    79   3863 33.2044  0.0000 17.1971  5.4823  3.8454 3.30106 15.314 35.849 27.684 22.307  6.2363 20.3400 32.1828
 2003 008    84    80   4024 32.6343  0.0000 15.8000  5.1539  4.0702 4.22896 15.849 36.894 28.474 22.810  6.2562 20.3980 32.0007
 2003 009    85    81   4161 30.1937  1.8653 16.6765  5.5292  4.5689 1.85893 15.739 36.468 28.626 24.969  6.3494 20.4458 31.3704
 2003 010    86    82   4214 18.5006  1.9032 10.3581  3.8520  3.6318 0.00000 15.560 35.939 26.855 24.346  6.3676 20.4652 31.2371
 2003 011    87    83   4331 28.9646  1.8290 15.9414  5.7628  4.2878 1.22466 15.439 35.508 28.324 23.880  6.3651 20.4753 31.2427
 2003 012    88    84   4485 32.9738  1.7992 18.1802  6.5827  4.3817 1.79888 15.357 35.151 28.032 23.086  6.3460 20.4755 31.3619
 2003 013    89    85   4631 32.6289  1.7178 17.7026  6.8669  3.9951 1.60055 15.284 34.828 27.304 21.497  6.3151 20.4046 31.6260
 2003 014    90    86   4749 32.4427  1.9465 16.4996  7.0221  4.7804 1.29427 15.169 34.422 29.163 23.787  6.3223 20.4239 31.5617
 2003 015    91    87   4847 30.7177  2.1071 15.4241  6.7356  5.2127 0.81290 15.011 33.932 29.931 25.272  6.3547 20.4393 31.3441
 2003 016    92    88   4940 30.8311  2.1958 15.3633  6.8051  5.5488 0.64231 14.833 33.401 30.219 26.062  6.3935 20.4513 31.0891
 2003 017    93    89   5028 30.4602  2.2225 15.1286  6.6885  5.9441 0.53894 14.646 32.852 31.815 26.870  6.4354 20.4601 30.8184
 2003 018    94    90   5088 30.8922  1.9744 15.8435  7.3769  4.3453 0.23869 14.474 32.337 26.250 22.451  6.4007 20.4473 31.0484
 2003 019    95    91   5154 29.1899  1.9866 14.7277  7.0324  4.7766 0.00000 14.283 31.779 29.569 23.478  6.3857 20.4571 31.1325
 2003 020    96    92   5219 25.6830  2.0787 13.1736  6.2057  4.5045 0.00000 14.078 31.185 26.687 23.785  6.3787 20.4656 31.1675
 2003 021    97    93   5298 30.2425  2.0345 14.9714  7.1964  4.9165 0.00000 13.878 30.596 28.279 23.800  6.3741 20.4716 31.1906
 2003 022    98    94   5327 21.4391  2.1326 11.0491  5.0833  4.8488 0.00000 13.664 29.969 29.051 25.289  6.3915 20.4761 31.0773
 2003 023    99    95   5409 29.4353  1.8876 14.8353  7.4755  4.2756 0.00000 13.484 29.408 25.355 22.131  6.3668 20.4528 31.2547
 2003 024   100    96   5497 29.8938  1.6870 15.4024  7.6421  3.7389 0.00000 13.325 28.902 25.627 19.752  6.3422 20.3100 31.5513
 2003 025   101    97   5565 28.3532  1.9228 14.3451  7.0790  4.7150 0.00000 13.134 28.314 27.852 23.088  6.3357 20.3319 31.5701
 2003 026   102    98   5631 29.4213  1.8547 14.7129  7.4499  4.6709 0.00000 12.948 27.738 27.983 22.538  6.3257 20.3411 31.6231
 2003 027   103    99   5688 27.9745  1.8015 14.0634  7.1489  4.5078 0.00000 12.766 27.169 27.938 22.136  6.3145 20.3394 31.6950
 2003 028   104   100   5757 28.8507  1.8636 14.1367  7.3312  5.1944 0.00000 12.572 26.567 29.560 23.830  6.3192 20.3584 31.6466
 2003 029   105   101   5783 28.1419  1.9180 13.6285  7.0981  5.6396 0.00000 12.368 25.935 30.077 25.171  6.3364 20.3742 31.5230
 2003 030   106   102   5842 29.1160  1.9222 13.5637  7.2677  6.6399 0.00290 12.155 25.282 32.949 27.220  6.3702 20.3876 31.2987
 2003 031   107   103   5890 27.7937  1.8949 12.7898  6.7770  7.0043 0.04684 11.934 24.628 33.943 28.214  6.4065 20.3985 31.0609
 2003 032   108   104   5922 23.1800  1.6360 10.9853  5.9900  5.8605 0.06972 11.780 24.089 30.544 26.606  6.4500 20.3593 30.8279
 2003 033   109   105   5965 26.3562  1.7925 12.0033  6.6431  6.7662 0.02731 11.569 23.439 33.602 27.803  6.4736 20.3722 30.6679
 2003 034   110   106   5964 15.8366  1.6376  8.1094  3.5294  5.1573 0.02880 11.393 22.843 30.379 26.048  6.4869 20.3629 30.5939
 2003 035   111   107   5955 14.8005  1.6426  7.8648  3.2466  4.8157 0.00688 11.199 22.213 29.245 25.344  6.4889 20.3670 30.5775
 2003 036   112   108   5958 12.1087  1.4905  7.0334  2.5383  3.6427 0.00000 11.019 21.621 24.113 22.396  6.4770 20.3677 30.6513
 2003 037   113   109   6012 23.1832  1.5276 11.0468  5.5113  5.9002 0.01707 10.827 21.004 31.134 26.483  6.4892 20.3686 30.5741
 2003 038   114   110   6048 16.2067  1.4790  8.3940  3.5713  4.5652 0.00732 10.629 20.385 26.892 24.388  6.4864 20.3719 30.5878
 2003 039   115   111   6095 19.4278  1.4237  9.4153  4.7812  5.2194 0.02075 10.433 19.782 28.701 25.481  6.4917 20.3696 30.5570
 2003 040   116   112   6132 17.7892  1.3129  8.3626  4.2221  5.2816 0.04779 10.257 19.229 28.827 25.930  6.5039 20.3552 30.4952
 2003 041   117   113   6166 16.6122  1.2920  7.9428  3.8326  4.8719 0.03459 10.065 18.663 27.938 25.077  6.5092 20.3471 30.4706
 2003 042   118   114   6179 11.9544  1.2594  6.1334  2.5090  3.9770 0.01477  9.859 18.084 25.611 23.430  6.5060 20.3459 30.4913
 2003 043   119   115   6236 20.5285  1.1566  9.5079  4.9957  4.7885 0.04401  9.673 17.559 27.201 24.270  6.5089 20.3364 30.4831
 2003 044   120   116   6294 20.1380  1.0829  9.2781  4.9373  4.5342 0.04709  9.490 17.061 27.487 23.555  6.5094 20.3264 30.4899
 2003 045   121   117   6349 19.5281  1.1000  8.9356  5.1237  4.5831 0.03210  9.285 16.531 28.331 23.793  6.5084 20.3222 30.5001
 2003 046   122   118   6392 17.2193  1.0783  7.6869  4.3800  4.6908 0.03126  9.073 16.000 29.744 24.528  6.5104 20.3177 30.4921
 2003 047   123   119   6435 13.6696  0.9128  6.9706  3.9036  2.5080 0.01563  8.881 15.535 20.941 17.905  6.5046 20.2445 30.6016
 2003 048   124   120   6494 17.7850  0.8373  8.3939  5.0125  3.1486 0.04499  8.712 15.122 25.007 19.257  6.5005 20.1891 30.6828
 2003 049   125   121   6546 17.1133  0.8935  7.8427  4.7105  3.5751 0.03425  8.515 14.663 27.035 20.893  6.4958 20.1705 30.7306
 2003 050   126   122   6555  7.6429  0.8539  4.1452  2.0955  1.9722 0.00000  8.305 14.195 19.488 16.596  6.4929 20.1152 30.8040
 2003 051   127   123   6418 11.7425  0.8223  6.0006  2.9623  2.1418 0.00000  8.011 13.242 20.213 16.680  6.4556 20.1086 31.0437
 2003 052   128   124   6310 10.0205  0.7006  4.9824  2.4154  2.0774 0.00000  7.725 12.401 22.174 16.429  6.4332 20.0841 31.2085
 2003 053   129   125   6195  5.6087  0.6441  2.7412  1.2370  2.0662 0.00000  7.431 11.629 21.269 18.130  6.4307 20.0656 31.2424
 2003 054   130   126   6069  2.7040  0.5614  1.1903  0.3414  1.8255 0.00000  7.140 10.944 19.850 17.853  6.4298 20.0564 31.2571
 2003 055   131   127   5990  4.6551  0.5749  1.7861  0.5959  2.8104 0.00000  6.823 10.271 25.621 22.625  6.4287 20.0588 31.2616
 2003 056   132   128   5932  4.6109  0.5103  1.6058  0.5384  2.9084 0.00000  6.518  9.667 28.431 22.905  6.4279 20.0611 31.2647
 2003 057   133   129   5875  3.2240  0.4910  0.1600  0.0459  3.5170 0.00000  6.182  9.092 31.406 26.310  6.4280 20.0614 31.2639
 2003 058   134   130   5822  2.5033  0.4557  0.0000  0.0000  3.6505 0.00000  5.852  8.561 31.998 27.366  6.4280 20.0614 31.2639
 2003 059   135   131   5782  1.2553  0.3982  0.0000  0.0000  2.6859 0.00000  5.553  8.093 26.249 23.827  6.4280 20.0614 31.2639
 2003 060   136   132   5749  0.9767  0.3558  0.0000  0.0000  2.3970 0.00000  5.278  7.675 24.271 22.597  6.4280 20.0614 31.2639
 2003 061   137   133   5712  0.6207  0.3274  0.0000  0.0000  2.2848 0.00000  5.019  7.291 23.662 22.202  6.4280 20.0614 31.2639
 2003 062   138   134   5689  0.9575  0.3152  0.0000  0.0000  2.5173 0.00000  4.765  6.926 26.425 23.293  6.4280 20.0614 31.2639

*DSSAT Cropping System Model Ver. 4.6.1.000 -release      OCT 19, 2016; 15:06:25
                                                                                
*RUN   4        : UYSB                      CRGRO046 UYSB0926    1              
 MODEL          : CRGRO046 - Soybean                                            
 EXPERIMENT     : UYSB0926 SN late to create DSS                                
 DATA PATH      :                                                               
 TREATMENT  1   : UYSB                      CRGRO046                            
  
@YEAR DOY   DAS   DAP   TWAD    PHAD    CMAD    CGRD    GRAD    MRAD    CHAD   CL%D   CS%D   TGNN   TGAV    GN%D    GL%D    GC%D
 2003 293     4     0      0  0.0000  0.0000  0.0000  0.0000  0.0000 0.00000  0.000  0.000 19.678 16.074  0.0000  0.0000  0.0000
 2003 294     5     1      0  0.0000  0.0000  0.0000  0.0000  0.0000 0.00000  0.000  0.000 21.773 17.669  0.0000  0.0000  0.0000
 2003 295     6     2      0  0.0000  0.0000  0.0000  0.0000  0.0000 0.00000  0.000  0.000 21.940 16.550  0.0000  0.0000  0.0000
 2003 296     7     3      0  0.0000  0.0000  0.0000  0.0000  0.0000 0.00000  0.000  0.000 24.784 18.999  0.0000  0.0000  0.0000
 2003 297     8     4      0  0.0000  0.0000  0.0000  0.0000  0.0000 0.00000  0.000  0.000 29.443 23.301  0.0000  0.0000  0.0000
 2003 298     9     5      0  0.0000  0.0000  0.0000  0.0000  0.0000 0.00000  0.000  0.000 24.056 22.020  0.0000  0.0000  0.0000
 2003 299    10     6      8  0.0000  0.0005  0.0003  0.0001  0.0000 0.00000  3.942  7.879 24.246 20.245  0.0000  0.0000  0.0000
 2003 300    11     7      8  0.1270  0.0003  0.0809  0.0286  0.0056 0.00000  3.917  7.830 18.975 14.544  0.0000  0.0000  0.0000
 2003 301    12     8      9  0.1657  0.0004  0.1064  0.0353  0.0084 0.00000  3.887  7.780 21.629 16.340  0.0000  0.0000  0.0000
 2003 302    13     9     11  0.2136  0.0005  0.1371  0.0440  0.0128 0.00000  3.851  7.728 24.119 18.543  0.0000  0.0000  0.0000
 2003 303    14    10     12  0.2470  0.0008  0.1543  0.0494  0.0220 0.00000  3.801  7.652 29.056 23.550  0.0000  0.0000  0.0000
 2003 304    15    11     13  0.1041  0.0005  0.0661  0.0228  0.0066 0.00000  3.775  7.601 18.680 15.676  0.0000  0.0000  0.0000
 2003 305    16    12     14  0.1682  0.0004  0.1095  0.0363  0.0070 0.00000  3.763  7.589 17.079 13.324  0.0000  0.0000  0.0000
 2003 306    17    13     15  0.1717  0.0004  0.1130  0.0358  0.0069 0.00000  3.753  7.583 17.762 12.218  0.0000  0.0000  0.0000
 2003 307    18    14     16  0.1978  0.0004  0.1304  0.0403  0.0086 0.00000  3.740  7.577 18.868 13.073  0.0000  0.0000  0.0000
 2003 308    19    15     18  0.2403  0.0007  0.1572  0.0482  0.0128 0.00000  3.719  7.556 20.549 15.933  0.0000  0.0000  0.0000
 2003 309    20    16     20  0.3115  0.0009  0.2035  0.0614  0.0187 0.00000  3.692  7.534 22.668 17.837  0.0000  0.0000  0.0000
 2003 310    21    17     22  0.3520  0.0012  0.2281  0.0680  0.0254 0.00000  3.658  7.499 24.731 20.043  0.0000  0.0000  0.0000
 2003 311    22    18     24  0.3771  0.0015  0.2293  0.0859  0.0305 0.00000  3.650  7.434 25.951 21.298  0.0000  0.0000  0.0000
 2003 312    23    19     26  0.4044  0.0017  0.2427  0.0927  0.0360 0.00000  3.639  7.368 27.600 22.303  0.0000  0.0000  0.0000
 2003 313    24    20     29  0.4197  0.0020  0.2521  0.0929  0.0420 0.00000  3.614  7.305 27.959 23.806  0.0000  0.0000  0.0000
 2003 314    25    21     33  0.6499  0.0020  0.4011  0.1416  0.0545 0.00000  3.605  7.307 28.213 22.664  0.0000  0.0000  0.0000
 2003 315    26    22     37  0.7010  0.0025  0.4427  0.1399  0.0721 0.00000  3.629  7.287 31.366 25.171  0.0000  0.0000  0.0000
 2003 316    27    23     39  0.3970  0.0017  0.2563  0.0878  0.0257 0.00000  3.645  7.258 19.316 17.060  0.0000  0.0000  0.0000
 2003 317    28    24     43  0.6137  0.0015  0.3650  0.1496  0.0293 0.00000  3.645  7.270 18.352 15.415  0.0000  0.0000  0.0000
 2003 318    29    25     48  0.7988  0.0016  0.5071  0.1766  0.0381 0.00000  3.648  7.316 20.675 15.482  0.0000  0.0000  0.0000
 2003 319    30    26     54  1.1219  0.0029  0.7244  0.2271  0.0802 0.00000  3.668  7.349 26.849 20.545  0.0000  0.0000  0.0000
 2003 320    31    27     57  0.5328  0.0032  0.3151  0.1161  0.0461 0.00000  3.628  7.302 21.316 19.812  0.0000  0.0000  0.0000
 2003 321    32    28     63  0.9592  0.0038  0.6532  0.1788  0.0785 0.00000  3.642  7.290 25.172 21.482  0.0000  0.0000  0.0000
 2003 322    33    29     67  0.5932  0.0025  0.3786  0.1315  0.0355 0.00000  3.657  7.262 17.422 15.667  0.0000  0.0000  0.0000
 2003 323    34    30     76  1.6078  0.0039  0.9281  0.3632  0.1023 0.00000  3.623  7.309 23.886 19.694  0.0000  0.0000  0.0000
 2003 324    35    31     85  1.3690  0.0031  0.8480  0.3043  0.0648 0.00000  3.624  7.338 18.961 15.736  0.0000  0.0000  0.0000
 2003 325    36    32     97  1.9332  0.0043  1.2252  0.4004  0.1094 0.00000  3.620  7.384 23.516 17.818  0.0000  0.0000  0.0000
 2003 326    37    33    110  2.2597  0.0075  1.3795  0.4474  0.2160 0.00000  3.598  7.381 30.701 24.430  0.0000  0.0000  0.0000
 2003 327    38    34    123  2.4221  0.0095  1.5089  0.4720  0.2716 0.00000  3.614  7.349 32.061 26.722  0.0000  0.0000  0.0000
 2003 328    39    35    129  1.0039  0.0062  0.5707  0.2325  0.0765 0.00000  3.584  7.304 18.854 17.420  0.0000  0.0000  0.0000
 2003 329    40    36    147  2.9796  0.0084  1.8660  0.6115  0.2094 0.00000  3.572  7.337 25.665 20.576  0.0000  0.0000  0.0000
 2003 330    41    37    161  2.4810  0.0120  1.5634  0.4786  0.2433 0.00000  3.558  7.306 27.935 23.814  0.0000  0.0000  0.0000
 2003 331    42    38    182  3.6827  0.0128  2.1498  0.8279  0.3184 0.00000  3.570  7.276 27.597 23.368  0.0000  0.0000  0.0000
 2003 332    43    39    200  3.0555  0.0127  1.8329  0.6743  0.2466 0.00000  3.571  7.243 25.765 21.177  0.0000  0.0000  0.0000
 2003 333    44    40    230  5.1104  0.0143  3.0918  1.1263  0.3827 0.00000  3.593  7.252 27.056 21.644  0.0000  0.0000  0.0000
 2003 334    45    41    246  2.9868  0.0142  1.8139  0.6767  0.2210 0.00000  3.584  7.217 21.430 19.387  0.0000  0.0000  0.0000
 2003 335    46    42    285  6.4696  0.0174  3.9392  1.4670  0.4525 0.00000  3.602  7.237 24.764 21.216  0.0000  0.0000  0.0000
 2003 336    47    43    325  6.6218  0.0180  4.0605  1.5202  0.4217 0.00000  3.615  7.252 24.016 19.535  0.0000  0.0000  0.0000
 2003 337    48    44    372  7.9559  0.0243  4.8149  1.8177  0.6103 0.00000  3.618  7.254 27.049 21.851  0.0000  0.0000  0.0000
 2003 338    49    45    410  6.7572  0.0293  4.1859  1.4806  0.5807 0.01528  3.664  7.310 26.335 22.428  0.0000  0.0000  0.0000
 2003 339    50    46    474 10.9254  0.0257  6.4649  2.5843  0.6446 0.05302  3.750  7.594 23.256 19.134  0.0000  0.0000  0.0000
 2003 340    51    47    545 11.5567  0.0264  7.0324  2.6588  0.6224 0.08570  3.863  7.940 23.228 17.421  0.0000  0.0000  0.0000
 2003 341    52    48    611 11.1349  0.0403  6.6430  2.5208  0.7910 0.11403  3.964  8.268 25.252 20.305  0.0000  0.0000  0.0000
 2003 342    53    49    661  8.5695  0.0404  5.0713  2.0128  0.5828 0.10950  4.040  8.520 22.502 18.487  0.0000  0.0000  0.0000
 2003 343    54    50    739 12.8280  0.0379  7.7070  3.0114  0.6619 0.19596  4.187  8.968 20.643 16.736  0.0000  0.0000  0.0000
 2003 344    55    51    841 16.9843  0.0544 10.0093  3.9667  1.0752 0.30021  4.369  9.518 25.323 18.944  0.0000  0.0000  0.0000
 2003 345    56    52    928 14.7719  0.0678  8.5420  3.4105  1.0317 0.29756  4.504  9.938 24.798 19.423  0.0000  0.0000  0.0000
 2003 346    57    53   1024 16.1292  0.0620  9.4212  3.7322  0.9008 0.36583  4.659 10.404 22.007 16.918  0.0000  0.0000  0.0000
 2003 347    58    54   1121 16.7430  0.0888  9.5748  3.8636  1.1568 0.41893  4.809 10.838 23.174 19.340  0.0000  0.0000  0.0000
 2003 348    59    55   1245 21.7671  0.1201 12.3088  5.0169  1.7374 0.60957  5.011 11.392 25.928 21.700  0.0000  0.0000  0.0000
 2003 349    60    56   1302 11.6287  0.1186  6.9595  2.4301  1.0178 0.37970  5.136 11.658 22.775 19.479  0.0000  0.0000  0.0000
 2003 350    61    57   1410 18.5672  0.0924 10.3003  4.3930  0.9972 0.60209  5.286 12.122 19.816 16.090  0.0000  0.0000  0.0000
 2003 351    62    58   1541 22.4301  0.1167 12.6040  5.0856  1.3261 0.79109  5.472 12.659 22.238 17.222  0.0000  0.0000  0.0000
 2003 352    63    59   1697 27.2850  0.1572 15.1402  6.3878  1.8581 1.02669  5.694 13.257 24.712 19.087  0.0000  0.0000  0.0000
 2003 353    64    60   1821 23.9294  0.2351 12.6749  5.4752  2.3469 0.95405  5.851 13.674 27.485 22.863  0.0000  0.0000  0.0000
 2003 354    65    61   1903 16.6804  0.2405  8.6062  3.8659  1.7306 0.70168  5.942 13.908 24.190 21.467  0.0000  0.0000  0.0000
 2003 355    66    62   2082 30.2304  0.0000 16.9309  4.5962  3.0761 3.23710  6.880 16.359 28.305 24.005  0.0000  0.0000  0.0000
 2003 356    67    63   2194 19.8751  0.2537 10.3411  4.5818  1.5606 0.91947  6.906 16.521 22.224 18.247  0.0000  0.0000  0.0000
 2003 357    68    64   2355 27.9013  0.2517 15.5681  6.0348  1.8262 1.47045  7.059 16.910 22.232 17.466  0.0000  0.0000  0.0000
 2003 358    69    65   2514 28.6934  0.3305 16.4065  5.9119  2.2723 1.62222  7.262 17.309 24.085 19.463  0.0000  0.0000  0.0000
 2003 359    70    66   2730 35.5546  0.0000 20.7142  5.7881  3.6201 2.56070  7.678 18.294 27.851 23.408  0.0000  0.0000  0.0000
 2003 360    71    67   2937 34.1205  0.0000 19.5677  5.4083  3.5383 2.80941  8.112 19.347 27.790 22.917  0.0000  0.0000  0.0000
 2003 361    72    68   3018 17.2970  0.5890  9.9364  3.1042  2.4801 1.02226  8.142 19.343 25.555 22.474  0.0000  0.0000  0.0000
 2003 362    73    69   3164 25.4606  0.4762 14.9612  4.7811  2.2599 1.60941  8.243 19.545 21.741 19.161  0.0000  0.0000  0.0000
 2003 363    74    70   3358 30.7530  0.0000 17.5623  4.8204  2.1917 3.03611  8.661 20.600 22.108 17.019  0.0000  0.0000  0.0000
 2003 364    75    71   3587 37.0576  0.0000 20.7030  5.8928  3.3003 3.75244  9.136 21.772 26.120 19.992  0.0000  0.0000  0.0000
 2003 365    76    72   3792 32.8328  0.0000 17.8729  5.1068  2.6423 4.09274  9.665 23.108 21.686 18.425  0.0000  0.0000  0.0000
 2004 001    77    73   4021 36.6371  0.6517 22.2647  6.6176  3.0336 2.83979  9.771 23.305 24.903 18.201  0.0000  0.0000  0.0000
 2004 002    78    74   4266 39.3750  0.0000 21.4187  6.0750  3.4204 4.73719 10.281 24.559 25.128 19.035  0.0000  0.0000  0.0000
 2004 003    79    75   4504 41.0070  1.0122 23.7618  7.3833  4.4807 3.10858 10.346 24.636 27.646 21.875  0.0000  0.0000  0.0000
 2004 004    80    76   4686 35.7889  1.2035 19.1373  6.5679  4.9808 2.59525 10.372 24.620 29.025 24.007  0.0000  0.0000  0.0000
 2004 005    81    77   4869 37.6269  1.3895 19.6696  6.6731  6.1287 2.74210 10.397 24.597 30.851 26.442  0.0000  0.0000  0.0000
 2004 006    82    78   5067 39.9981  1.3938 20.8529  7.1735  6.3978 2.92117 10.437 24.619 31.646 26.162  0.0000  0.0000  0.0000
 2004 007    83    79   5226 33.6610  1.4546 17.7767  5.8731  5.9006 2.22311 10.443 24.555 30.919 25.900  0.0000  0.0000  0.0000
 2004 008    84    80   5431 41.3025  1.5079 22.0501  7.2210  6.3183 2.87013 10.490 24.587 29.420 25.477  0.0000  0.0000  0.0000
 2004 009    85    81   5624 39.7459  1.5870 21.0823  6.8934  6.4834 2.78683 10.532 24.606 29.658 25.823  0.0000  0.0000  0.0000
 2004 010    86    82   5781 37.3913  1.6950 19.6513  6.7437  6.3640 2.31828 10.547 24.552 29.470 25.670  0.0000  0.0000  0.0000
 2004 011    87    83   5951 41.2349  1.6356 21.3525  8.0401  5.7177 2.46390 10.569 24.539 25.981 23.544  6.3294 20.4991 31.4423
 2004 012    88    84   6070 33.8683  1.6419 17.4750  6.8864  5.0950 1.30895 10.541 24.377 26.068 22.807  6.2880 20.4606 31.7396
 2004 013    89    85   6221 37.8572  1.6519 19.2132  7.9067  5.2656 1.59514 10.531 24.266 26.249 22.414  6.2663 20.4198 31.9156
 2004 014    90    86   6394 41.8065  1.7823 22.4331  8.2177  5.9996 1.95313 10.535 24.192 27.584 23.319  6.2835 20.4476 31.7806
 2004 015    91    87   6525 36.6508  1.6718 18.9246  7.8551  4.9343 1.19500 10.505 24.034 25.231 21.360  6.2544 20.3289 32.0808
 2004 016    92    88   6687 41.1372  1.6103 21.6707  8.7057  4.8663 1.66459 10.513 23.972 25.146 20.272  6.2313 20.1206 32.4340
 2004 017    93    89   6744 26.4333  1.3374 14.0872  5.3611  4.9037 0.15790 10.466 23.751 26.779 22.264  6.2335 20.1866 32.3539
 2004 018    94    90   6811 25.3401  1.9614 13.4736  5.3721  5.0654 0.00000 10.335 23.339 26.110 22.992  6.2481 20.2653 32.1838
 2004 019    95    91   6892 27.2108  1.7754 14.6254  6.0979  4.4103 0.00000 10.221 22.966 22.887 21.024  6.2343 20.1977 32.3379
 2004 020    96    92   6969 30.7334  1.9973 16.0201  6.6762  5.6127 0.00000 10.086 22.540 27.044 23.246  6.2487 20.2567 32.1892
 2004 021    97    93   7089 38.9055  2.0546 19.4677  8.6814  6.4805 0.40471  9.974 22.177 27.668 23.942  6.2715 20.3047 31.9985
 2004 022    98    94   7202 38.2766  2.1210 19.3013  8.3975  6.8796 0.23015  9.843 21.766 28.524 24.690  6.3005 20.3402 31.7818
 2004 023    99    95   7290 36.6452  2.0993 18.7692  8.2260  6.5490 0.00000  9.695 21.312 27.717 24.134  6.3146 20.3682 31.6653
 2004 024   100    96   7386 38.2382  2.0932 18.8574  8.6839  6.9342 0.00000  9.546 20.855 28.823 24.488  6.3319 20.3914 31.5340
 2004 025   101    97   7493 39.0358  1.9569 19.5434  9.2270  6.2775 0.00000  9.408 20.426 27.841 22.790  6.3217 20.4004 31.5891
 2004 026   102    98   7588 39.3878  1.9248 19.4291  9.2621  6.6122 0.00000  9.272 20.002 29.479 22.996  6.3162 20.4108 31.6132
 2004 027   103    99   7683 39.4099  1.9187 19.4165  9.4803  6.4034 0.00000  9.136 19.575 28.366 22.635  6.3075 20.4126 31.6653
 2004 028   104   100   7724 27.9260  2.0099 14.0409  6.5079  6.0943 0.00000  8.990 19.123 28.006 23.673  6.3128 20.4264 31.6188
 2004 029   105   101   7764 38.7554  2.0928 18.2328  9.1616  8.2195 0.00000  8.838 18.645 31.235 26.222  6.3491 20.4370 31.3812
 2004 030   106   102   7840 38.1162  2.0376 17.5328  8.7990  8.9497 0.04639  8.685 18.178 33.552 27.321  6.3926 20.4457 31.1005
 2004 031   107   103   7864 28.1744  2.0769 13.2432  6.3872  8.2237 0.00000  8.528 17.687 32.639 27.662  6.4329 20.4530 30.8413
 2004 032   108   104   7935 35.0093  1.9850 16.7589  8.6027  7.5353 0.00000  8.381 17.208 28.884 25.555  6.4431 20.4594 30.7711
 2004 033   109   105   7997 33.3921  1.8319 16.4274  8.2180  6.5150 0.00000  8.247 16.759 27.468 23.602  6.4290 20.4647 30.8539
 2004 034   110   106   7990 16.3815  1.6412  9.6877  3.4780  4.5071 0.00379  8.130 16.352 22.473 21.399  6.4113 20.4333 30.9963
 2004 035   111   107   8058 31.3396  1.5668 15.3598  7.6527  7.0257 0.07368  8.036 15.983 28.745 24.844  6.4360 20.3980 30.8769
 2004 036   112   108   8145 35.1420  1.6942 17.3433  9.0780  6.4271 0.00000  7.909 15.541 26.055 23.193  6.4274 20.3936 30.9350
 2004 037   113   109   8241 34.8665  1.2466 17.3214  9.5694  5.6420 0.09118  7.845 15.249 25.435 21.285  6.4240 20.3184 31.0319
 2004 038   114   110   8329 32.3508  1.1080 15.9337  8.6972  5.5854 0.12653  7.802 15.003 25.857 21.278  6.4301 20.2435 31.0684
 2004 039   115   111   8414 33.6161  1.1845 16.3163  9.0187  6.0914 0.11177  7.742 14.724 26.539 22.175  6.4351 20.2076 31.0730
 2004 040   116   112   8488 31.3235  1.1567 15.0302  8.1966  6.1832 0.11440  7.679 14.446 27.330 22.466  6.4422 20.1794 31.0569
 2004 041   117   113   8569 31.4971  1.2023 14.7699  8.1467  6.7675 0.10718  7.603 14.143 28.226 23.613  6.4529 20.1638 31.0058
 2004 042   118   114   8655 30.8376  1.1518 14.3152  7.9820  6.6621 0.11126  7.526 13.851 28.474 23.505  6.4625 20.1482 30.9609
 2004 043   119   115   8726 28.5227  1.3012 12.7844  6.9754  7.7358 0.08127  7.415 13.492 31.109 25.997  6.4787 20.1412 30.8672
 2004 044   120   116   8727 13.0122  1.3965  7.2121  2.4934  4.5809 0.00000  7.262 13.061 22.916 21.737  6.4714 20.1435 30.9104
 2004 045   121   117   8787 21.4953  1.0646 10.6871  5.4366  4.4269 0.06763  7.162 12.756 23.755 20.003  6.4691 20.0991 30.9690
 2004 046   122   118   8877 27.4496  0.9173 13.1376  7.6255  4.5698 0.09716  7.083 12.506 25.023 19.271  6.4687 20.0249 31.0458
 2004 047   123   119   8947 24.5228  1.0551 11.4503  6.4208  5.2167 0.07574  6.973 12.197 26.848 21.419  6.4679 20.0091 31.0663
 2004 048   124   120   9005 21.2467  1.0144  9.9953  5.4881  4.7372 0.07796  6.862 11.897 24.824 21.039  6.4684 19.9887 31.0837
 2004 049   125   121   9063 19.7626  0.9772  9.6242  5.4347  3.9038 0.05642  6.744 11.595 23.336 18.872  6.4667 19.9383 31.1450
 2004 050   126   122   9131 22.5245  0.8460 10.3617  6.1965  4.3255 0.10116  6.652 11.354 24.229 19.767  6.4691 19.8963 31.1720
 2004 051   127   123   9189 18.1042  0.7833  8.8746  5.4274  3.0282 0.07599  6.556 11.118 21.282 16.250  6.4743 19.7858 31.2499
 2004 052   128   124   9249 19.1870  0.7981  9.0542  5.5495  3.4613 0.08222  6.455 10.878 22.660 17.593  6.4772 19.7137 31.3038
 2004 053   129   125   9301 17.3452  0.8196  8.1331  4.9098  3.4376 0.07257  6.343 10.622 23.047 17.731  6.4794 19.6552 31.3486
 2004 054   130   126   9357 19.9348  0.8515  8.8231  5.4232  4.2847 0.08271  6.224 10.356 24.812 20.140  6.4806 19.6355 31.3609
 2004 055   131   127   9411 17.7780  0.7028  8.2739  3.1963  4.5093 0.13067  6.138 10.163 25.209 21.251  6.4166 19.7640 31.6323
 2004 056   132   128   9183 18.1611  0.0000  7.1280  2.3335  4.8125 1.61809  6.384 10.394 26.860 21.869  6.3556 19.8915 31.8861
 2004 057   133   129   8982 14.1008  1.0458  6.2421  2.5329  4.7100 0.00000  6.106  9.544 28.615 22.378  6.3187 19.9717 32.0361
 2004 058   134   130   8814 10.8235  0.9014  4.3020  1.6355  4.7101 0.00000  5.832  8.795 30.182 23.199  6.2940 20.0280 32.1344
 2004 059   135   131   8667  7.8704  0.7648  3.1046  1.5029  3.6534 0.00000  5.573  8.144 25.645 21.371  6.2933 20.0286 32.1384
 2004 060   136   132   8544  5.9970  0.6593  2.2429  0.9571  3.2954 0.00000  5.327  7.577 24.901 20.770  6.2926 20.0277 32.1432
 2004 061   137   133   8442  5.0590  0.5950  1.6688  0.5982  3.3519 0.00000  5.087  7.070 25.838 21.353  6.2923 20.0280 32.1453
 2004 062   138   134   8350  2.4776  0.5109  0.1886  0.0541  2.7547 0.00000  4.855  6.632 23.368 19.881  6.2922 20.0277 32.1460
 2004 063   139   135   8279  3.1228  0.4576  0.6910  0.1982  2.7274 0.00000  4.641  6.244 24.815 19.408  6.2920 20.0262 32.1487
 2004 064   140   136   8216  2.3928  0.4187  0.0420  0.0120  2.7597 0.00000  4.429  5.896 26.155 19.504  6.2920 20.0261 32.1489
 2004 065   141   137   8162  1.9197  0.4019  0.0000  0.0000  3.0476 0.00000  4.219  5.572 27.455 21.055  6.2920 20.0261 32.1489
 2004 066   142   138   8112  1.2849  0.4124  0.0000  0.0000  3.9753 0.00000  3.997  5.252 29.937 25.317  6.2920 20.0261 32.1489
 2004 067   143   139   8065  0.5071  0.3444  0.0000  0.0000  2.6149 0.00000  3.807  4.983 21.758 20.550  6.2920 20.0261 32.1489

*DSSAT Cropping System Model Ver. 4.6.1.000 -release      OCT 19, 2016; 15:06:25
                                                                                
*RUN   5        : UYSB                      CRGRO046 UYSB0926    1              
 MODEL          : CRGRO046 - Soybean                                            
 EXPERIMENT     : UYSB0926 SN late to create DSS                                
 DATA PATH      :                                                               
 TREATMENT  1   : UYSB                      CRGRO046                            
  
@YEAR DOY   DAS   DAP   TWAD    PHAD    CMAD    CGRD    GRAD    MRAD    CHAD   CL%D   CS%D   TGNN   TGAV    GN%D    GL%D    GC%D
 2004 293     4     0      0  0.0000  0.0000  0.0000  0.0000  0.0000 0.00000  0.000  0.000 18.950 14.098  0.0000  0.0000  0.0000
 2004 294     5     1      0  0.0000  0.0000  0.0000  0.0000  0.0000 0.00000  0.000  0.000 18.487 12.991  0.0000  0.0000  0.0000
 2004 295     6     2      0  0.0000  0.0000  0.0000  0.0000  0.0000 0.00000  0.000  0.000 22.041 15.936  0.0000  0.0000  0.0000
 2004 296     7     3      0  0.0000  0.0000  0.0000  0.0000  0.0000 0.00000  0.000  0.000 26.154 20.298  0.0000  0.0000  0.0000
 2004 297     8     4      0  0.0000  0.0000  0.0000  0.0000  0.0000 0.00000  0.000  0.000 18.593 16.415  0.0000  0.0000  0.0000
 2004 298     9     5      0  0.0000  0.0000  0.0000  0.0000  0.0000 0.00000  0.000  0.000 18.037 14.751  0.0000  0.0000  0.0000
 2004 299    10     6      0  0.0000  0.0000  0.0000  0.0000  0.0000 0.00000  0.000  0.000 20.195 15.587  0.0000  0.0000  0.0000
 2004 300    11     7      8  0.0000  0.0004  0.0002  0.0001  0.0000 0.00000  3.957  7.910 21.487 16.841  0.0000  0.0000  0.0000
 2004 301    12     8      8  0.0938  0.0002  0.0599  0.0215  0.0034 0.00000  3.940  7.876 16.656 11.188  0.0000  0.0000  0.0000
 2004 302    13     9      9  0.1606  0.0003  0.1035  0.0339  0.0080 0.00000  3.911  7.827 22.688 15.324  0.0000  0.0000  0.0000
 2004 303    14    10     10  0.2012  0.0006  0.1268  0.0411  0.0149 0.00000  3.866  7.749 27.304 20.690  0.0000  0.0000  0.0000
 2004 304    15    11     11  0.0900  0.0005  0.0564  0.0194  0.0068 0.00000  3.828  7.676 19.374 17.586  0.0000  0.0000  0.0000
 2004 305    16    12     12  0.2126  0.0006  0.1373  0.0431  0.0134 0.00000  3.792  7.633 22.821 18.923  0.0000  0.0000  0.0000
 2004 306    17    13     14  0.2851  0.0007  0.1844  0.0564  0.0184 0.00000  3.759  7.604 24.849 19.519  0.0000  0.0000  0.0000
 2004 307    18    14     16  0.3072  0.0009  0.2035  0.0583  0.0225 0.00000  3.742  7.571 27.393 20.417  0.0000  0.0000  0.0000
 2004 308    19    15     17  0.1361  0.0009  0.0820  0.0282  0.0122 0.00000  3.696  7.498 21.525 19.342  0.0000  0.0000  0.0000
 2004 309    20    16     18  0.1431  0.0009  0.0946  0.0261  0.0125 0.00000  3.665  7.435 21.399 19.144  0.0000  0.0000  0.0000
 2004 310    21    17     18  0.1166  0.0005  0.0716  0.0250  0.0068 0.00000  3.646  7.409 17.002 13.495  0.0000  0.0000  0.0000
 2004 311    22    18     19  0.2036  0.0004  0.1334  0.0412  0.0081 0.00000  3.640  7.420 16.593 12.048  0.0000  0.0000  0.0000
 2004 312    23    19     21  0.2615  0.0006  0.1727  0.0508  0.0116 0.00000  3.630  7.432 19.073 13.453  0.0000  0.0000  0.0000
 2004 313    24    20     23  0.3069  0.0011  0.2063  0.0639  0.0199 0.00000  3.666  7.387 23.034 17.808  0.0000  0.0000  0.0000
 2004 314    25    21     24  0.1776  0.0011  0.0998  0.0428  0.0145 0.00000  3.643  7.319 19.034 17.853  0.0000  0.0000  0.0000
 2004 315    26    22     25  0.2128  0.0012  0.1279  0.0465  0.0169 0.00000  3.623  7.265 21.074 18.210  0.0000  0.0000  0.0000
 2004 316    27    23     27  0.3190  0.0011  0.1983  0.0701  0.0180 0.00000  3.622  7.252 18.342 16.408  0.0000  0.0000  0.0000
 2004 317    28    24     29  0.3908  0.0011  0.2463  0.0828  0.0212 0.00000  3.621  7.257 19.136 16.414  0.0000  0.0000  0.0000
 2004 318    29    25     32  0.4423  0.0011  0.2815  0.0921  0.0224 0.00000  3.621  7.277 19.578 15.674  0.0000  0.0000  0.0000
 2004 319    30    26     35  0.4768  0.0015  0.2995  0.0987  0.0292 0.00000  3.614  7.278 21.554 17.578  0.0000  0.0000  0.0000
 2004 320    31    27     40  0.8002  0.0022  0.5156  0.1630  0.0552 0.00000  3.645  7.300 24.341 20.580  0.0000  0.0000  0.0000
 2004 321    32    28     44  0.7601  0.0023  0.4685  0.1581  0.0515 0.00000  3.626  7.311 22.560 19.874  0.0000  0.0000  0.0000
 2004 322    33    29     50  0.9569  0.0022  0.6074  0.1973  0.0523 0.00000  3.627  7.351 21.927 17.592  0.0000  0.0000  0.0000
 2004 323    34    30     56  0.9667  0.0022  0.6184  0.1989  0.0483 0.00000  3.628  7.382 20.558 16.294  0.0000  0.0000  0.0000
 2004 324    35    31     62  0.8737  0.0021  0.5606  0.1804  0.0416 0.00000  3.627  7.397 19.289 15.097  0.0000  0.0000  0.0000
 2004 325    36    32     68  0.9862  0.0025  0.6303  0.2083  0.0494 0.00000  3.627  7.408 20.155 15.605  0.0000  0.0000  0.0000
 2004 326    37    33     76  1.3097  0.0032  0.8234  0.2876  0.0715 0.00000  3.635  7.414 22.402 16.920  0.0000  0.0000  0.0000
 2004 327    38    34     87  1.7084  0.0046  1.0702  0.3677  0.1143 0.00000  3.631  7.418 25.161 19.822  0.0000  0.0000  0.0000
 2004 328    39    35     98  1.8763  0.0063  1.1474  0.3945  0.1704 0.00000  3.615  7.399 30.033 23.295  0.0000  0.0000  0.0000
 2004 329    40    36    103  0.9950  0.0074  0.6020  0.2069  0.1075 0.00000  3.574  7.326 24.796 22.681  0.0000  0.0000  0.0000
 2004 330    41    37    113  1.5466  0.0069  0.9681  0.3268  0.1246 0.00000  3.548  7.308 23.388 20.987  0.0000  0.0000  0.0000
[...]
 2010 055   131   127   5947  6.0225  0.5273  2.7896  1.2080  1.9974 0.00000  6.606  9.681 21.616 17.908  6.4630 20.2327 30.8733
 2010 056   132   128   5877  4.0877  0.4380  1.9494  0.7944  1.5664 0.00000  6.362  9.125 20.027 15.892  6.4624 20.2012 30.9087
 2010 057   133   129   5817  3.6143  0.4235  1.5299  0.5488  1.8620 0.00000  6.107  8.605 21.542 18.157  6.4610 20.1898 30.9289
 2010 058   134   130   5765  3.0285  0.4123  0.9621  0.2760  2.2414 0.00000  5.838  8.113 24.022 20.601  6.4600 20.1884 30.9366
 2010 059   135   131   5718  2.2107  0.3920  0.1209  0.0347  2.4512 0.00000  5.555  7.653 25.048 22.163  6.4599 20.1884 30.9372
 2010 060   136   132   5678  1.8876  0.3703  0.0000  0.0000  3.6291 0.00000  5.275  7.225 34.611 27.062  6.4599 20.1884 30.9372
 2010 061   137   133   5645  1.3768  0.3362  0.0000  0.0000  2.5504 0.00000  5.012  6.838 27.560 22.897  6.4599 20.1884 30.9372
 2010 062   138   134   5614  0.7042  0.3109  0.0000  0.0000  2.4249 0.00000  4.763  6.483 26.909 22.603  6.4599 20.1884 30.9372
 2010 063   139   135   5586  0.8883  0.3085  0.0000  0.0000  2.9178 0.00000  4.511  6.138 28.694 25.279  6.4599 20.1884 30.9372

*DSSAT Cropping System Model Ver. 4.6.1.000 -release      OCT 19, 2016; 15:06:25
                                                                                
*RUN  11        : UYSB                      CRGRO046 UYSB0926    1              
 MODEL          : CRGRO046 - Soybean                                            
 EXPERIMENT     : UYSB0926 SN late to create DSS                                
 DATA PATH      :                                                               
 TREATMENT  1   : UYSB                      CRGRO046                            
  
@YEAR DOY   DAS   DAP   TWAD    PHAD    CMAD    CGRD    GRAD    MRAD    CHAD   CL%D   CS%D   TGNN   TGAV    GN%D    GL%D    GC%D
 2010 293     4     0      0  0.0000  0.0000  0.0000  0.0000  0.0000 0.00000  0.000  0.000 23.464 17.933  0.0000  0.0000  0.0000
 2010 294     5     1      0  0.0000  0.0000  0.0000  0.0000  0.0000 0.00000  0.000  0.000 25.912 19.523  0.0000  0.0000  0.0000
 2010 295     6     2      0  0.0000  0.0000  0.0000  0.0000  0.0000 0.00000  0.000  0.000 23.754 19.827  0.0000  0.0000  0.0000
 2010 296     7     3      0  0.0000  0.0000  0.0000  0.0000  0.0000 0.00000  0.000  0.000 20.291 15.721  0.0000  0.0000  0.0000
 2010 297     8     4      0  0.0000  0.0000  0.0000  0.0000  0.0000 0.00000  0.000  0.000 20.989 15.918  0.0000  0.0000  0.0000
 2010 298     9     5      0  0.0000  0.0000  0.0000  0.0000  0.0000 0.00000  0.000  0.000 20.274 16.595  0.0000  0.0000  0.0000
 2010 299    10     6      8  0.0000  0.0003  0.0002  0.0001  0.0000 0.00000  3.970  7.937 19.820 13.817  0.0000  0.0000  0.0000
 2010 300    11     7      9  0.1475  0.0004  0.0940  0.0323  0.0084 0.00000  3.929  7.859 21.767 17.800  0.0000  0.0000  0.0000
 2010 301    12     8     10  0.1950  0.0005  0.1251  0.0418  0.0112 0.00000  3.891  7.796 23.556 18.088  0.0000  0.0000  0.0000
 2010 302    13     9     10  0.0846  0.0004  0.0532  0.0191  0.0055 0.00000  3.860  7.733 19.226 15.865  0.0000  0.0000  0.0000
 2010 303    14    10     11  0.1805  0.0004  0.1173  0.0397  0.0082 0.00000  3.838  7.703 19.620 15.008  0.0000  0.0000  0.0000
 2010 304    15    11     13  0.2284  0.0005  0.1487  0.0485  0.0121 0.00000  3.812  7.673 22.248 16.706  0.0000  0.0000  0.0000
 2010 305    16    12     14  0.2584  0.0007  0.1682  0.0540  0.0148 0.00000  3.783  7.641 22.900 17.714  0.0000  0.0000  0.0000
 2010 306    17    13     16  0.2882  0.0007  0.1881  0.0593  0.0169 0.00000  3.756  7.615 24.242 17.410  0.0000  0.0000  0.0000
 2010 307    18    14     18  0.3258  0.0010  0.2091  0.0657  0.0246 0.00000  3.721  7.573 27.535 20.416  0.0000  0.0000  0.0000
 2010 308    19    15     20  0.2984  0.0013  0.1888  0.0589  0.0274 0.00000  3.679  7.512 28.717 22.277  0.0000  0.0000  0.0000
 2010 309    20    16     22  0.3757  0.0011  0.2449  0.0747  0.0253 0.00000  3.650  7.490 24.711 19.236  0.0000  0.0000  0.0000
 2010 310    21    17     25  0.3665  0.0011  0.2404  0.0732  0.0227 0.00000  3.627  7.473 23.660 17.541  0.0000  0.0000  0.0000
 2010 311    22    18     27  0.4234  0.0016  0.2523  0.0985  0.0391 0.00000  3.632  7.404 29.741 22.296  0.0000  0.0000  0.0000
 2010 312    23    19     30  0.5055  0.0020  0.2977  0.1134  0.0552 0.00000  3.626  7.341 32.607 25.054  0.0000  0.0000  0.0000
 2010 313    24    20     31  0.1347  0.0006  0.0802  0.0356  0.0075 0.00000  3.631  7.316 13.638 11.204  0.0000  0.0000  0.0000
 2010 314    25    21     33  0.4051  0.0009  0.2594  0.0915  0.0175 0.00000  3.638  7.330 19.246 12.766  0.0000  0.0000  0.0000
 2010 315    26    22     36  0.3925  0.0009  0.2513  0.0884  0.0163 0.00000  3.645  7.341 17.977 12.319  0.0000  0.0000  0.0000
 2010 316    27    23     38  0.4617  0.0011  0.2954  0.1017  0.0215 0.00000  3.646  7.349 18.891 14.021  0.0000  0.0000  0.0000
 2010 317    28    24     42  0.5746  0.0014  0.3695  0.1237  0.0285 0.00000  3.643  7.363 20.270 15.077  0.0000  0.0000  0.0000
 2010 318    29    25     46  0.5666  0.0018  0.3601  0.1234  0.0323 0.00000  3.636  7.358 21.029 16.230  0.0000  0.0000  0.0000
 2010 319    30    26     50  0.6672  0.0024  0.4164  0.1485  0.0437 0.00000  3.628  7.339 21.979 18.326  0.0000  0.0000  0.0000
 2010 320    31    27     55  0.8145  0.0025  0.5136  0.1793  0.0499 0.00000  3.622  7.338 21.480 18.077  0.0000  0.0000  0.0000
 2010 321    32    28     60  0.9468  0.0028  0.6000  0.2083  0.0591 0.00000  3.614  7.347 22.970 18.242  0.0000  0.0000  0.0000
 2010 322    33    29     67  1.1063  0.0029  0.7068  0.2405  0.0654 0.00000  3.608  7.368 23.607 17.410  0.0000  0.0000  0.0000
 2010 323    34    30     72  0.7155  0.0033  0.4512  0.1533  0.0526 0.00000  3.588  7.344 23.771 17.466  0.0000  0.0000  0.0000
 2010 324    35    31     79  1.2252  0.0048  0.7578  0.2645  0.1031 0.00000  3.572  7.325 27.225 21.564  0.0000  0.0000  0.0000
 2010 325    36    32     87  1.4846  0.0062  0.9016  0.3239  0.1400 0.00000  3.557  7.294 26.525 23.981  0.0000  0.0000  0.0000
 2010 326    37    33     98  1.6924  0.0054  1.0633  0.3666  0.1210 0.00000  3.550  7.308 24.641 20.305  0.0000  0.0000  0.0000
 2010 327    38    34    107  1.5456  0.0061  0.9706  0.3288  0.1184 0.00000  3.533  7.301 24.309 20.403  0.0000  0.0000  0.0000
 2010 328    39    35    117  1.5982  0.0075  0.9900  0.3358  0.1429 0.00000  3.510  7.278 26.815 21.870  0.0000  0.0000  0.0000
 2010 329    40    36    132  2.5411  0.0067  1.6011  0.5571  0.1665 0.00000  3.521  7.313 25.633 19.146  0.0000  0.0000  0.0000
 2010 330    41    37    149  2.8573  0.0095  1.7660  0.6125  0.2417 0.00000  3.519  7.318 28.514 22.493  0.0000  0.0000  0.0000
 2010 331    42    38    166  2.8794  0.0111  1.7593  0.6006  0.2812 0.00000  3.507  7.307 30.884 23.716  0.0000  0.0000  0.0000
 2010 332    43    39    178  1.9178  0.0081  1.2180  0.4138  0.1208 0.00000  3.499  7.297 20.180 16.954  0.0000  0.0000  0.0000
 2010 333    44    40    191  2.2154  0.0077  1.4206  0.4708  0.1259 0.00000  3.495  7.304 20.878 15.788  0.0000  0.0000  0.0000
 2010 334    45    41    214  3.8672  0.0102  2.3649  0.9022  0.2479 0.00000  3.540  7.305 26.324 17.901  0.0000  0.0000  0.0000
 2010 335    46    42    241  4.5015  0.0156  2.6931  1.0208  0.3857 0.00000  3.561  7.280 29.209 22.327  0.0000  0.0000  0.0000
 2010 336    47    43    269  4.9805  0.0195  2.9211  1.1169  0.5212 0.00000  3.568  7.245 32.132 25.035  0.0000  0.0000  0.0000
 2010 337    48    44    300  5.4493  0.0215  3.2424  1.2618  0.5017 0.00000  3.571  7.216 28.822 23.553  0.0000  0.0000  0.0000
 2010 338    49    45    341  6.8323  0.0205  4.1279  1.6035  0.5293 0.00000  3.587  7.221 28.399 21.194  0.0000  0.0000  0.0000
 2010 339    50    46    389  8.2381  0.0258  4.9575  1.9219  0.6730 0.00000  3.597  7.223 28.385 22.471  0.0000  0.0000  0.0000
 2010 340    51    47    445  9.3852  0.0262  5.6970  2.2046  0.6917 0.00000  3.609  7.237 28.052 20.703  0.0000  0.0000  0.0000
 2010 341    52    48    508 10.6768  0.0275  6.6192  2.4205  0.8349 0.00000  3.642  7.258 30.583 20.367  0.0000  0.0000  0.0000
 2010 342    53    49    564  9.4775  0.0342  5.6793  2.2456  0.7104 0.00000  3.633  7.244 26.885 20.146  0.0000  0.0000  0.0000
 2010 343    54    50    640 13.4855  0.0525  8.1386  2.9213  1.3923 0.00000  3.651  7.217 30.369 25.997  0.0000  0.0000  0.0000
 2010 344    55    51    717 13.4644  0.0444  8.1615  2.9587  1.2409 0.01883  3.684  7.277 32.154 22.370  0.0000  0.0000  0.0000
 2010 345    56    52    785 12.0565  0.0582  7.2920  2.6098  1.1983 0.05416  3.730  7.391 30.118 23.452  0.0000  0.0000  0.0000
 2010 346    57    53    816  5.8808  0.0338  3.0389  1.5721  0.3866 0.03199  3.722  7.441 19.240 15.047  0.0000  0.0000  0.0000
 2010 347    58    54    916 15.2466  0.0377 10.2341  3.0779  0.7870 0.14359  3.851  7.795 23.348 15.142  0.0000  0.0000  0.0000
 2010 348    59    55   1040 20.6959  0.0577 12.6155  4.6934  1.3633 0.22460  3.995  8.211 27.130 18.602  0.0000  0.0000  0.0000
 2010 349    60    56   1167 22.1120  0.0908 12.2709  5.2693  1.9373 0.28269  4.078  8.591 29.351 22.758  0.0000  0.0000  0.0000
 2010 350    61    57   1308 24.3299  0.1103 14.4192  5.2757  2.2339 0.41101  4.247  9.059 29.538 23.447  0.0000  0.0000  0.0000
 2010 351    62    58   1458 26.2755  0.1407 15.3422  5.5873  2.7188 0.52821  4.423  9.550 30.505 25.130  0.0000  0.0000  0.0000
 2010 352    63    59   1595 23.3265  0.1692 14.3864  4.4879  2.6362 0.57652  4.590  9.988 30.085 25.463  0.0000  0.0000  0.0000
 2010 353    64    60   1664 13.7198  0.1511  6.8964  3.3645  1.3776 0.31849  4.599 10.141 22.902 20.753  0.0000  0.0000  0.0000
 2010 354    65    61   1796 23.5362  0.2035 13.6299  4.7603  2.5616 0.72139  4.770 10.604 27.143 24.563  0.0000  0.0000  0.0000
 2010 355    66    62   1977 31.9842  0.2103 18.3210  6.5260  3.1868 1.07932  5.014 11.270 29.686 23.990  0.0000  0.0000  0.0000
 2010 356    67    63   2193 34.6088  0.2607 21.8678  6.1667  3.8203 1.41713  5.300 12.015 30.806 25.432  0.0000  0.0000  0.0000
 2010 357    68    64   2417 36.3079  0.0000 20.6568  5.5577  3.9841 3.21098  6.112 14.266 30.419 25.080  0.0000  0.0000  0.0000
 2010 358    69    65   2498 17.5653  0.3730  7.9935  4.2967  2.3594 0.63853  6.062 14.270 25.696 23.259  0.0000  0.0000  0.0000
 2010 359    70    66   2693 37.6504  0.4233 20.7441  7.4409  4.5389 1.78173  6.302 14.768 30.831 26.066  0.0000  0.0000  0.0000
 2010 360    71    67   2932 39.7763  0.0000 23.1444  6.3227  4.4840 2.46593  6.712 15.786 31.032 24.654  0.0000  0.0000  0.0000
 2010 361    72    68   3170 40.1917  0.0000 23.0690  6.3365  5.0094 2.56153  7.089 16.715 31.437 25.883  0.0000  0.0000  0.0000
 2010 362    73    69   3429 41.5326  0.0000 23.0938  6.2048  4.0930 4.57704  7.807 18.625 27.656 22.424  0.0000  0.0000  0.0000
 2010 363    74    70   3657 39.1793  0.5619 22.9732  6.3596  4.6351 2.44484  7.964 18.960 28.321 24.343  0.0000  0.0000  0.0000
 2010 364    75    71   3918 43.2066  0.0000 24.6149  6.9074  4.3198 3.48118  8.365 19.943 27.060 22.115  0.0000  0.0000  0.0000
 2010 365    76    72   4154 43.2235  0.8585 24.0606  8.1631  5.1457 2.59618  8.452 20.102 28.765 24.106  0.0000  0.0000  0.0000
 2011 001    77    73   4343 36.6253  0.9029 19.8655  6.8411  4.8313 2.15869  8.508 20.187 29.164 23.967  0.0000  0.0000  0.0000
 2011 002    78    74   4506 31.7711  0.9088 17.7328  5.8968  4.0781 1.87779  8.553 20.239 25.884 22.622  0.0000  0.0000  0.0000
 2011 003    79    75   4604 20.9220  0.8684 11.8653  3.8115  3.1536 0.92856  8.542 20.149 23.424 21.345  0.0000  0.0000  0.0000
 2011 004    80    76   4757 31.4755  1.0431 17.1965  5.6878  4.8331 1.77021  8.576 20.175 28.546 24.388  0.0000  0.0000  0.0000
 2011 005    81    77   4897 30.4416  1.1111 16.1656  5.5313  5.0490 1.54012  8.592 20.153 28.852 24.981  0.0000  0.0000  0.0000
 2011 006    82    78   5136 45.2340  1.1175 24.8112  8.1542  6.3569 2.81220  8.700 20.381 30.294 25.204  0.0000  0.0000  0.0000
 2011 007    83    79   5350 45.1915  1.3519 22.9365  7.9116  8.2676 2.77259  8.780 20.540 33.141 28.983  0.0000  0.0000  0.0000
 2011 008    84    80   5551 41.2799  1.3169 21.8779  7.3523  6.8522 2.46210  8.849 20.661 30.699 26.433  0.0000  0.0000  0.0000
 2011 009    85    81   5741 42.1863  1.3988 21.0210  7.7601  7.4297 2.22007  8.890 20.722 31.556 27.183  0.0000  0.0000  0.0000
 2011 010    86    82   5851 27.8629  1.2146 14.5888  5.4465  4.9408 0.66499  8.847 20.554 28.881 23.254  0.0000  0.0000  0.0000
 2011 011    87    83   5961 28.5913  1.2636 14.8281  5.7127  4.8460 0.49852  8.794 20.351 25.813 23.197  0.0000  0.0000  0.0000
 2011 012    88    84   6106 35.9071  1.3649 19.1103  6.7096  5.6124 1.44135  8.808 20.320 27.055 23.757  0.0000  0.0000  0.0000
 2011 013    89    85   6293 43.4762  1.3770 22.6226  8.2219  6.0302 2.22016  8.877 20.446 27.441 23.319  6.3107 20.4917 31.5664
 2011 014    90    86   6476 45.2975  1.4799 23.9344  8.6799  6.4270 2.40464  8.955 20.591 27.765 23.715  6.3357 20.4979 31.4038
 2011 015    91    87   6654 46.3463  1.6484 22.5112  9.2625  7.8181 2.07167  8.981 20.625 31.054 25.930  6.4623 20.4992 30.6116
 2011 016    92    88   6760 37.1557  1.7904 18.1367  7.1280  8.0024 1.13381  8.941 20.460 32.624 27.427  6.5579 20.4996 30.0139
 2011 017    93    89   6864 37.0656  1.7039 18.3492  7.9295  6.5508 0.54472  8.866 20.200 28.848 24.511  6.4985 20.4997 30.3849
 2011 018    94    90   7003 43.7333  1.7056 20.9211  9.4465  7.2658 1.28975  8.850 20.100 30.061 24.722  6.4760 20.4998 30.5254
 2011 019    95    91   7159 44.2605  1.7691 21.5516  9.4634  7.6031 1.12652  8.818 19.958 30.530 25.119  6.4737 20.4999 30.5393
 2011 020    96    92   7294 44.5976  1.8119 21.4449  9.7935  7.5170 0.98118  8.774 19.782 29.790 24.810  6.4655 20.4999 30.5906
 2011 021    97    93   7455 44.0897  1.6080 22.5232  9.8228  6.1284 0.98563  8.748 19.655 28.035 21.622  6.4076 20.4299 31.0224
 2011 022    98    94   7570 42.1729  1.9312 20.5787  9.4954  7.8110 0.18318  8.632 19.285 30.020 25.398  6.4255 20.4445 30.8964
 2011 023    99    95   7672 43.9637  1.9601 21.5673  9.7888  8.2690 0.14673  8.511 18.899 30.502 25.845  6.4461 20.4552 30.7568
 2011 024   100    96   7748 39.8500  2.1281 18.2925  8.6604  9.8553 0.00000  8.361 18.439 32.989 29.084  6.5124 20.4631 30.3344
 2011 025   101    97   7823 38.8099  2.0087 18.1086  8.8890  8.5649 0.00000  8.222 18.001 31.088 26.933  6.5331 20.4697 30.1984
 2011 026   102    98   7826 21.1045  1.8142 10.0210  4.1231  7.2495 0.05638  8.097 17.614 33.817 26.402  6.5406 20.4743 30.1471
 2011 027   103    99   7897 35.5596  1.9340 16.3874  8.2127  8.1331 0.00000  7.968 17.183 30.680 26.526  6.5489 20.4784 30.0909
 2011 028   104   100   7986 39.9631  1.9368 18.6995  9.2491  8.9380 0.00000  7.837 16.746 31.448 27.222  6.5639 20.4815 29.9940
 2011 029   105   101   8069 39.7474  1.8774 18.6913  9.3410  8.5586 0.00000  7.708 16.317 30.874 26.469  6.5671 20.4840 29.9716
 2011 030   106   102   8078 23.1762  1.8198 11.4358  5.1677  7.0374 0.00000  7.581 15.896 30.413 25.866  6.5630 20.4860 29.9955
 2011 031   107   103   8033 18.8200  1.7804  9.8762  3.6756  6.8484 0.00209  7.460 15.476 30.636 26.161  6.5635 20.4858 29.9921
 2011 032   108   104   8102 33.3353  1.6415 16.2796  8.6010  6.5337 0.00000  7.350 15.077 26.626 23.654  6.5446 20.4649 30.1311
 2011 033   109   105   8216 41.0167  1.4499 19.8836 10.6091  6.3386 0.00000  7.253 14.718 28.104 21.553  6.4975 20.4501 30.4408
 2011 034   110   106   8308 39.0203  1.5744 18.1926  9.7297  8.2908 0.00000  7.138 14.321 32.183 25.346  6.4965 20.4553 30.4414
 2011 035   111   107   8374 31.6778  1.2117 14.9127  7.8966  7.3330 0.11624  7.082 14.057 29.345 24.943  6.5202 20.4021 30.3465
 2011 036   112   108   8456 37.6154  1.6010 17.0160  9.6091  8.9302 0.00000  6.955 13.636 32.082 26.786  6.5358 20.3986 30.2526
 2011 037   113   109   8529 31.4041  1.1798 14.6623  7.8187  7.4372 0.10901  6.894 13.364 28.950 25.086  6.5521 20.3617 30.1879
 2011 038   114   110   8568 28.5494  1.2665 13.5040  6.9241  7.2556 0.07337  6.809 13.047 28.931 25.032  6.5596 20.3429 30.1597
 2011 039   115   111   8569 16.0935  1.2547  8.8576  3.2904  4.7496 0.01784  6.705 12.701 22.396 21.394  6.5476 20.3267 30.2505
 2011 040   116   112   8605 19.3569  1.1401 10.1337  4.3849  4.7607 0.03803  6.612 12.388 22.066 20.993  6.5376 20.2969 30.3432
 2011 041   117   113   8640 19.4827  1.1549 10.0484  4.3476  4.9266 0.03154  6.510 12.062 23.741 21.381  6.5280 20.2782 30.4218
 2011 042   118   114   8736 32.0715  1.0063 14.9298  8.0974  6.3180 0.09191  6.436 11.800 25.211 23.030  6.5275 20.2610 30.4424
 2011 043   119   115   8802 24.1185  1.0677 11.7126  5.9269  5.2728 0.04965  6.336 11.496 24.686 21.720  6.5204 20.2442 30.5036
 2011 044   120   116   8902 31.1824  0.8317 14.4326  8.3037  5.5049 0.11057  6.276 11.286 25.272 21.305  6.5184 20.2042 30.5555
 2011 045   121   117   8999 30.1847  0.8377 14.0118  8.2642  5.2465 0.09923  6.207 11.065 25.063 20.847  6.5151 20.1628 30.6177
 2011 046   122   118   9095 28.1360  0.7071 13.3093  8.2243  4.3026 0.10552  6.152 10.886 24.460 18.315  6.5148 20.0549 30.7277
 2011 047   123   119   9183 28.2893  0.8811 12.8013  7.7181  5.5164 0.08628  6.063 10.639 26.837 21.622  6.5126 20.0390 30.7573
 2011 048   124   120   9255 27.2108  1.0200 11.6116  6.9793  6.9698 0.07190  5.944 10.336 29.291 25.184  6.5195 20.0384 30.7145
 2011 049   125   121   9316 24.3956  1.0199 10.3035  6.1022  6.7114 0.06322  5.816 10.025 29.270 25.128  6.5251 20.0380 30.6802
 2011 050   126   122   9384 23.6133  0.8979 10.3929  6.2521  5.3208 0.06974  5.703  9.754 25.678 22.287  6.5241 20.0321 30.6924
 2011 051   127   123   9438 20.6250  0.9256  9.0437  5.3107  5.1101 0.05461  5.576  9.463 25.323 22.290  6.5226 20.0285 30.7051
 2011 052   128   124   9446 12.9141  1.1271  5.5334  2.6040  5.3062 0.00000  5.396  9.075 27.368 23.978  6.5202 20.0358 30.7128
 2011 053   129   125   9487 18.0859  1.0026  7.5453  4.3673  5.6021 0.02732  5.237  8.737 27.224 23.977  6.5199 20.0396 30.7112
 2011 054   130   126   9479  9.0724  0.9889  4.0020  1.6747  4.0842 0.00092  5.069  8.388 22.575 21.576  6.5166 20.0409 30.7305
 2011 055   131   127   9507 13.7292  0.9495  6.0404  2.8457  4.2770 0.00000  4.903  8.049 23.849 21.389  6.4932 20.0798 30.8376
 2011 056   132   128   9226 13.7341  0.9265  5.8782  2.5316  4.5375 0.00000  4.680  7.180 24.506 22.189  6.4655 20.1328 30.9580
 2011 057   133   129   9017 14.5436  0.7458  6.2578  2.9704  4.1062 0.00000  4.470  6.439 24.211 21.218  6.4347 20.1861 31.0973
 2011 058   134   130   8850 10.6299  0.5744  4.7929  2.1062  3.0566 0.00000  4.286  5.825 23.536 18.299  6.4051 20.2190 31.2494
 2011 059   135   131   8703  8.9277  0.5062  3.5526  1.9986  3.2943 0.00000  4.101  5.290 26.025 19.400  6.4030 20.2093 31.2717
 2011 060   136   132   8577  6.7410  0.4571  2.3983  1.1740  3.3339 0.00000  3.916  4.820 25.123 20.814  6.4017 20.2074 31.2818
 2011 061   137   133   8470  5.1916  0.4098  1.4740  0.5393  3.5454 0.00000  3.732  4.409 27.211 21.978  6.4011 20.2077 31.2855
 2011 062   138   134   8377  3.8726  0.3656  0.5344  0.1533  3.5681 0.00000  3.550  4.051 27.871 22.569  6.4009 20.2080 31.2865
 2011 063   139   135   8297  3.0267  0.3301  0.0000  0.0000  3.4917 0.00000  3.370  3.739 27.255 22.843  6.4009 20.2080 31.2865
 2011 064   140   136   8231  2.5012  0.2751  0.0000  0.0000  2.7832 0.00000  3.212  3.478 25.733 19.936  6.4009 20.2080 31.2865
 2011 065   141   137   8175  1.9487  0.2677  0.0000  0.0000  3.2842 0.00000  3.051  3.238 27.539 22.455  6.4009 20.2080 31.2865
 2011 066   142   138   8128  1.4437  0.2528  0.0000  0.0000  3.5689 0.00000  2.893  3.022 28.726 23.857  6.4009 20.2080 31.2865
 2011 067   143   139   8088  1.2473  0.2412  0.0000  0.0000  3.9323 0.00000  2.738  2.824 29.773 25.473  6.4009 20.2080 31.2865
