*SOIL NITROGEN DAILY OUTPUT FILE

*DSSAT Cropping System Model Ver. 4.0.2.000               Aug 29, 2016; 09:16:37

*RUN   1        : UYSB                    
 MODEL          : CRGRO040 - Soybean         
 EXPERIMENT     : UYSB0405 SB    late to create DSS                             
 TREATMENT  1   : UYSB                    

@YEAR DOY   DAS  NAPC  NI#M    NLCC   NIAD    NOAD   NITD   NHTD  NI1D  NI2D  NI3D  NI4D  NI5D  NI6D  NI7D  NI8D  NI9D  NI10  NH1D  NH2D  NH3D  NH4D  NH5D  NH6D  NH7D  NH8D  NH9D  NH10    NMNC    NITC    NDNC    NIMC    AMLC
 2000 238     0     0     0     0.0   99.3   16645   76.6   22.7  16.1  15.3  15.1   8.6   4.6   0.0   0.1   0.1   0.0   0.0   0.5   1.3   1.5   1.4   1.4  1.50  1.46  1.45  0.00  0.00    0.55    1.76    0.00    0.00    0.00
 2000 239     1     0     0     0.0   99.8   16645   77.8   22.0  16.5  15.5  15.3   8.7   4.6   0.0   0.1   0.1   0.0   0.0   0.2   1.2   1.4   1.4   1.4  1.51  1.43  1.41  0.00  0.00    1.09    3.01    0.00    0.00    0.00
 2000 240     2     0     0     0.0  100.4   16644   78.9   21.5  16.6  15.7  15.4   8.8   4.7   0.1   0.1   0.2   0.0   0.0   0.2   1.1   1.4   1.3   1.4  1.51  1.40  1.37  0.00  0.00    1.61    4.09    0.00    0.00    0.00
 2000 241     3     0     0     0.0  100.9   16644   79.9   21.0   5.8  16.2  19.0   8.8   4.8   0.1   0.2   0.2   0.0   0.0   0.1   1.0   1.4   1.3   1.3  1.51  1.37  1.33  0.00  0.00    2.13    5.09    0.00    0.00    0.00
 2000 242     4     0     0     0.0  101.4   16643   80.7   20.7   5.9  15.7  19.4   9.0   4.8   0.1   0.2   0.2   0.0   0.0   0.1   1.0   1.4   1.3   1.3  1.51  1.34  1.29  0.00  0.00    2.61    5.86    0.00    0.00    0.00
 2000 243     5     0     0     0.0  101.8   16643   81.6   20.3   6.0  15.7  19.5   9.1   4.9   0.1   0.3   0.3   0.0   0.0   0.1   0.9   1.4   1.2   1.2  1.52  1.31  1.25  0.00  0.00    3.08    6.74    0.00    0.00    0.00
 2000 244     6     0     0     0.0  102.3   16642   82.4   19.9   6.0  15.8  19.5   9.2   4.9   0.1   0.3   0.3   0.0   0.0   0.1   0.9   1.3   1.2   1.2  1.52  1.28  1.21  0.00  0.00    3.57    7.62    0.00    0.00    0.00
 2000 245     7     0     0     0.0  102.8   16642   83.3   19.5   6.1  16.0  19.6   9.4   5.0   0.1   0.3   0.4   0.0   0.0   0.1   0.8   1.3   1.1   1.2  1.52  1.25  1.18  0.00  0.00    4.05    8.46    0.00    0.00    0.00
 2000 246     8     0     0     0.0  103.3   16642   84.1   19.2   6.2  16.1  19.6   9.5   5.0   0.2   0.4   0.4   0.0   0.0   0.1   0.8   1.3   1.1   1.1  1.52  1.23  1.14  0.00  0.00    4.50    9.24    0.00    0.00    0.00
 2000 247     9     0     0     0.0  103.7   16641   84.8   18.9   6.4  16.1  19.6   9.6   5.1   0.2   0.4   0.4   0.0   0.0   0.1   0.7   1.3   1.1   1.1  1.53  1.20  1.11  0.00  0.00    4.97   10.03    0.00    0.00    0.00
 2000 248    10     0     0     0.0  104.2   16641   85.6   18.6   6.5  16.2  19.7   9.7   5.1   0.2   0.5   0.5   0.0   0.0   0.1   0.7   1.3   1.1   1.1  1.53  1.18  1.08  0.00  0.00    5.45   10.79    0.00    0.00    0.00
 2000 249    11     0     0     0.0  104.7   16640   86.4   18.3   6.7  16.3  19.7   9.8   5.1   0.2   0.5   0.5   0.0   0.0   0.1   0.7   1.3   1.0   1.1  1.53  1.15  1.05  0.00  0.00    5.92   11.54    0.00    0.00    0.00
 2000 250    12     0     0     0.0  105.2   16640   87.1   18.1   6.8  16.3  19.8   9.9   5.2   0.2   0.5   0.5   0.0   0.0   0.1   0.6   1.3   1.0   1.0  1.53  1.13  1.02  0.00  0.00    6.41   12.30    0.00    0.00    0.00
 2000 251    13     0     0     0.0  105.7   16639   87.9   17.8   7.0  16.4  19.9  10.0   5.2   0.2   0.6   0.6   0.0   0.0   0.1   0.6   1.3   1.0   1.0  1.54  1.10  0.99  0.00  0.00    6.93   13.08    0.00    0.00    0.00
 2000 252    14     0     0     0.0  106.3   16639   88.7   17.6   7.2  16.5  19.9  10.1   5.3   0.3   0.6   0.6   0.0   0.0   0.1   0.6   1.2   0.9   1.0  1.54  1.08  0.96  0.00  0.00    7.51   13.90    0.00    0.00    0.00
 2000 253    15     0     0     0.0  106.9   16638   89.6   17.3   6.2  17.2  20.0  10.2   5.3   0.3   0.6   0.6   0.0   0.0   0.1   0.6   1.2   0.9   1.0  1.54  1.06  0.93  0.00  0.00    8.13   14.78    0.00    0.00    0.00
 2000 254    16     0     0     0.0  107.5   16637   90.4   17.1   2.1  10.9  19.4  14.1   7.1   0.3   0.7   0.7   0.0   0.0   0.2   0.6   1.2   0.9   0.9  1.54  1.04  0.90  0.00  0.00    8.77   15.60    0.00    0.00    0.00
 2000 255    17     0     0     0.1  108.1   16637   90.9   17.2   2.3  10.7  18.9  13.8   7.6   0.6   0.7   0.7   0.0   0.0   0.1   0.6   1.3   0.9   0.9  1.55  1.02  0.88  0.00  0.00    9.39   16.12    0.00    0.00    0.00
 2000 256    18     0     0     0.1  108.7   16636   91.2   17.5   2.6  10.6  18.7  13.5   7.8   0.7   0.7   0.7   0.0   0.0   0.1   0.7   1.4   1.0   0.9  1.56  0.99  0.85  0.00  0.00   10.05   16.50    0.00    0.00    0.00
 2000 257    19     0     0     0.1  109.3   16635   91.6   17.7   1.9   8.9  17.8  14.0   8.9   0.9   0.7   0.8   0.0   0.0   0.1   0.7   1.5   1.0   0.9  1.58  0.99  0.83  0.00  0.00   10.66   16.95    0.00    0.00    0.00
 2000 258    20     0     0     0.1  109.7   16635   91.7   18.0   1.3   7.6  16.7  13.8   9.5   1.6   0.8   0.8   0.0   0.0   0.2   0.7   1.5   1.0   1.0  1.59  1.00  0.82  0.00  0.00   11.17   17.10    0.00    0.00    0.00
 2000 259    21     0     0     0.5  109.5   16634   91.2   18.3   1.3   7.5  16.2  13.3   9.5   1.9   0.9   0.8   0.0   0.0   0.2   0.8   1.6   1.0   1.0  1.61  1.00  0.82  0.00  0.00   11.63   17.23    0.33    0.00    0.00
 2000 260    22     0     0     0.7  109.5   16634   91.0   18.6   1.5   7.4  15.9  13.0   9.5   2.0   1.0   0.8   0.0   0.0   0.2   0.8   1.7   1.0   1.0  1.62  1.00  0.81  0.00  0.00   12.05   17.44    0.57    0.00    0.00
 2000 261    23     0     0     0.8  109.7   16634   91.0   18.6   1.7   7.4  15.8  12.9   9.4   2.1   1.0   0.8   0.0   0.0   0.1   0.8   1.7   1.0   1.0  1.63  1.00  0.81  0.00  0.00   12.45   17.75    0.71    0.00    0.00
 2000 262    24     0     0     0.8  110.0   16633   91.2   18.7   1.3   6.5  15.4  13.4   9.8   2.2   1.1   0.9   0.0   0.0   0.1   0.8   1.7   1.1   1.0  1.65  1.01  0.80  0.00  0.00   12.86   18.06    0.76    0.00    0.00
 2000 263    25     0     0     1.3  109.6   16633   90.5   19.0   0.6   4.4  12.3  12.0  10.4   3.8   1.8   1.1   0.0   0.0   0.2   0.8   1.8   1.1   1.0  1.66  1.01  0.80  0.00  0.00   13.32   18.21    1.08    0.00    0.00
 2000 264    26     0     0     1.5  109.5   16632   90.1   19.3   0.6   4.1  11.8  11.8  10.5   3.9   1.9   1.2   0.0   0.0   0.1   0.9   1.9   1.1   1.1  1.68  1.01  0.80  0.00  0.00   13.81   18.40    1.50    0.00    0.00
 2000 265    27     0     0     2.0  109.0   16632   89.3   19.7   0.8   4.1  11.4  11.3  10.2   4.1   2.0   1.2   0.0   0.0   0.1   0.9   1.9   1.1   1.1  1.69  1.02  0.80  0.00  0.00   14.34   18.59    1.92    0.00    0.00
 2000 266    28     0     0     2.4  108.9   16631   88.9   20.0   0.9   4.1  11.2  11.1  10.1   4.1   2.1   1.3   0.0   0.0   0.1   1.0   2.0   1.1   1.1  1.71  1.02  0.79  0.00  0.00   14.89   18.83    2.17    0.00    0.00
 2000 267    29     0     0     2.4  109.2   16631   89.2   20.1   1.1   4.2  11.1  11.0  10.0   4.2   2.2   1.3   0.0   0.0   0.1   0.9   2.0   1.2   1.1  1.72  1.03  0.79  0.00  0.00   15.45   19.27    2.31    0.00    0.00
 2000 268    30     0     0     2.6  109.5   16630   89.3   20.2   1.3   4.3  11.2  10.9  10.0   4.2   2.2   1.3   0.0   0.0   0.1   0.8   2.1   1.2   1.1  1.74  1.03  0.78  0.00  0.00   16.01   19.71    2.39    0.00    0.00
 2000 269    31     0     0     2.7  109.9   16630   89.8   20.1   1.5   4.4  11.3  10.8   9.9   4.2   2.2   1.3   0.0   0.0   0.1   0.8   2.0   1.2   1.1  1.75  1.03  0.78  0.00  0.00   16.53   20.33    2.43    0.00    0.00
 2000 270    32     0     0     2.7  110.3   16629   90.3   20.0   1.7   4.5  11.4  10.9   9.9   4.2   2.2   1.4   0.0   0.0   0.1   0.7   2.0   1.2   1.1  1.76  1.03  0.78  0.00  0.00   17.02   20.89    2.46    0.00    0.00
 2000 271    33     0     0     2.7  110.7   16629   90.8   20.0   1.9   4.6  11.5  10.9   9.9   4.2   2.3   1.4   0.0   0.0   0.1   0.7   1.9   1.2   1.2  1.78  1.03  0.77  0.00  0.00   17.50   21.42    2.47    0.00    0.00
 2000 272    34     0     0     2.7  111.2   16628   91.3   19.9   2.0   4.7  11.6  10.9   9.9   4.2   2.3   1.4   0.0   0.0   0.1   0.7   1.8   1.2   1.2  1.79  1.03  0.77  0.00  0.00   18.00   21.97    2.49    0.00    0.00
 2000 273    35     0     0     2.7  111.6   16628   91.8   19.8   2.2   4.8  11.7  11.0   9.9   4.2   2.3   1.4   0.0   0.0   0.1   0.6   1.8   1.2   1.2  1.80  1.03  0.76  0.00  0.00   18.52   22.62    2.50    0.00    0.00
 2000 274    36     0     0     2.7  112.1   16627   92.5   19.6   1.7   4.9  12.0  11.1   9.9   4.2   2.3   1.4   0.0   0.0   0.1   0.6   1.7   1.1   1.2  1.82  1.03  0.76  0.00  0.00   19.11   23.34    2.51    0.00    0.00
 2000 275    37     0     0     2.8  112.7   16626   92.8   19.9   1.9   4.9  12.0  11.1  10.0   4.3   2.3   1.4   0.0   0.0   0.1   0.7   1.8   1.1   1.2  1.83  1.03  0.75  0.00  0.00   19.76   23.76    2.53    0.00    0.00
 2000 276    38     0     0     2.8  113.2   16626   93.2   20.0   1.1   3.9  10.6  11.0  10.7   4.9   2.5   1.5   0.0   0.0   0.1   0.6   1.9   1.1   1.2  1.84  1.03  0.75  0.00  0.00   20.45   24.29    2.54    0.00    0.00
 2000 277    39     0     0     2.9  113.6   16625   93.1   20.5   0.8   3.5  10.0  10.6  10.6   5.2   2.8   1.6   0.0   0.0   0.2   0.7   1.9   1.1   1.2  1.86  1.04  0.74  0.00  0.00   21.11   24.48    2.70    0.00    0.00
 2000 278    40     0     0     3.7  113.2   16624   92.4   20.8   1.1   3.5   9.8  10.2  10.2   5.3   3.0   1.7   0.0   0.0   0.1   0.8   2.0   1.2   1.2  1.88  1.04  0.74  0.00  0.00   21.73   24.76    2.88    0.00    0.00
 2000 279    41     0     0     4.1  113.0   16624   91.9   21.1   1.2   3.5   9.6  10.0  10.0   5.3   3.1   1.8   0.0   0.0   0.1   0.9   2.1   1.2   1.3  1.89  1.05  0.73  0.00  0.00   22.33   25.03    3.08    0.00    0.00
 2000 280    42     0     0     4.4  113.1   16623   91.9   21.2   1.4   3.6   9.6   9.9   9.9   5.3   3.1   1.9   0.0   0.0   0.1   0.8   2.1   1.2   1.3  1.91  1.05  0.73  0.00  0.00   22.91   25.48    3.21    0.00    0.00
 2000 281    43     0     0     4.5  113.4   16623   92.3   21.1   1.7   3.7   9.7   9.9   9.9   5.3   3.1   1.9   0.0   0.0   0.1   0.8   2.1   1.2   1.3  1.92  1.05  0.73  0.00  0.00   23.45   26.13    3.27    0.00    0.00
 2000 282    44     0     0     4.6  113.7   16622   92.8   21.0   1.8   3.8   9.8   9.8   9.9   5.3   3.2   1.9   0.0   0.0   0.1   0.7   2.0   1.2   1.3  1.93  1.05  0.72  0.00  0.00   24.00   26.77    3.30    0.00    0.00
 2000 283    45     0     0     4.6  114.1   16621   93.2   20.9   1.3   3.6   9.8  10.1  10.0   5.3   3.2   1.9   0.0   0.0   0.1   0.7   1.9   1.2   1.3  1.94  1.05  0.72  0.00  0.00   24.57   27.41    3.32    0.00    0.00
 2000 284    46     0     0     5.0  114.1   16621   92.9   21.2   1.3   3.5   9.6   9.8   9.9   5.4   3.3   2.0   0.0   0.0   0.2   0.7   2.0   1.3   1.3  1.95  1.05  0.71  0.00  0.00   25.13   27.61    3.41    0.00    0.00
 2000 285    47     0     0     5.1  114.3   16620   92.9   21.4   1.5   3.5   9.5   9.6   9.8   5.5   3.4   2.1   0.0   0.0   0.1   0.8   2.0   1.3   1.3  1.96  1.05  0.71  0.00  0.00   25.69   27.93    3.47    0.00    0.00
 2000 286    48     0     0     5.2  114.6   16620   93.1   21.5   1.7   3.6   9.4   9.5   9.8   5.5   3.4   2.1   0.0   0.0   0.1   0.7   2.1   1.3   1.3  1.98  1.05  0.70  0.00  0.00   26.26   28.39    3.50    0.00    0.00
 2000 287    49     0     0     5.2  115.0   16619   93.6   21.3   1.9   3.7   9.6   9.5   9.8   5.5   3.4   2.1   0.0   0.0   0.1   0.7   2.0   1.3   1.3  1.99  1.05  0.70  0.00  0.00   26.86   29.10    3.53    0.00    0.00
 2000 288    50     0     0     5.2  115.3   16619   94.1   21.2   2.1   3.8   9.7   9.5   9.8   5.5   3.4   2.1   0.0   0.0   0.1   0.6   1.9   1.3   1.3  2.00  1.05  0.69  0.00  0.00   27.46   29.79    3.54    0.00    0.00
 2000 289    51     0     0     5.2  115.8   16618   94.7   21.1   2.3   3.9   9.8   9.6   9.8   5.5   3.4   2.1   0.0   0.0   0.1   0.6   1.8   1.3   1.3  2.01  1.05  0.69  0.00  0.00   28.07   30.46    3.56    0.00    0.00
 2000 290    52     0     0     5.2  116.3   16617   95.4   20.9   2.1   4.2  10.0   9.6   9.8   5.5   3.4   2.1   0.0   0.0   0.1   0.6   1.7   1.3   1.4  2.02  1.05  0.69  0.00  0.00   28.68   31.24    3.57    0.00    0.00
 2000 291    53     0     0     5.2  116.7   16617   95.8   20.9   2.2   4.2  10.1   9.7   9.9   5.5   3.5   2.1   0.0   0.0   0.1   0.7   1.7   1.2   1.4  2.03  1.05  0.68  0.00  0.00   29.29   31.88    3.58    0.00    0.00
 2000 292    54     0     0     5.2  117.1   16616   96.4   20.7   2.4   4.3  10.2   9.8   9.9   5.5   3.5   2.1   0.0   0.0   0.1   0.6   1.6   1.2   1.4  2.04  1.05  0.68  0.00  0.00   29.88   32.61    3.59    0.00    0.00
 2000 293    55     0     0     5.2  117.5   16616   97.0   20.5   1.8   4.3  10.4  10.0   9.9   5.6   3.5   2.1   0.0   0.0   0.1   0.6   1.6   1.1   1.4  2.05  1.05  0.67  0.00  0.00   30.48   33.32    3.60    0.00    0.00
 2000 294    56     0     0     5.4  117.7   16615   96.9   20.8   1.9   4.2  10.2   9.8   9.9   5.6   3.5   2.2   0.0   0.0   0.1   0.7   1.6   1.1   1.4  2.06  1.05  0.67  0.00  0.00   31.07   33.59    3.62    0.00    0.00
 2000 295    57     0     0     5.5  118.0   16614   96.9   21.1   2.1   4.2  10.1   9.8   9.9   5.6   3.6   2.2   0.0   0.0   0.1   0.8   1.7   1.1   1.4  2.07  1.05  0.66  0.00  0.00   31.70   33.91    3.64    0.00    0.00
 2000 296    58     0     0     5.6  118.1   16614   96.9   21.2   1.1   3.3   8.6   9.3  10.2   6.4   4.0   2.4   0.0   0.0   0.1   0.7   1.8   1.2   1.4  2.08  1.05  0.66  0.00  0.00   32.34   34.41    3.66    0.00    0.00
 2000 297    59     0     0     5.8  118.1   16613   96.5   21.6   1.1   3.2   8.5   9.1  10.0   6.4   4.2   2.5   0.0   0.0   0.2   0.8   1.8   1.2   1.4  2.10  1.05  0.66  0.00  0.00   32.97   34.59    3.86    0.00    0.00
 2000 298    60     0     0     6.7  117.2   16612   95.4   21.8   1.3   3.2   8.3   8.8   9.7   6.3   4.2   2.6   0.0   0.0   0.1   0.9   1.9   1.2   1.4  2.11  1.06  0.65  0.00  0.00   33.59   34.89    4.21    0.00    0.00
 2000 299    61     0     0     9.3  114.8   16612   92.9   21.9   0.6   2.2   6.4   7.5   9.0   6.9   5.0   3.3   0.0   0.0   0.1   0.8   2.0   1.2   1.4  2.12  1.06  0.65  0.00  0.00   34.21   35.36    4.41    0.00    0.00
 2000 300    62     0     0    10.7  113.1   16611   90.9   22.2   0.5   1.9   5.7   6.9   8.6   7.0   5.2   3.6   0.0   0.0   0.1   0.8   2.0   1.2   1.4  2.13  1.06  0.65  0.00  0.00   34.81   35.58    4.79    0.00    0.00
 2000 301    63     0     0    12.4  111.1   16611   88.7   22.4   0.6   1.8   5.4   6.6   8.2   6.8   5.2   3.7   0.0   0.0   0.1   0.9   2.1   1.3   1.5  2.14  1.06  0.65  0.00  0.00   35.38   35.79    5.16    0.00    0.00
 2000 302    64     0     0    13.4  109.6   16610   87.1   22.5   0.7   1.7   5.3   6.4   8.0   6.7   5.2   3.7   0.0   0.0   0.1   0.9   2.1   1.3   1.5  2.14  1.06  0.65  0.00  0.00   35.99   36.09    5.37    0.00    0.00
 2000 303    65     0     0    13.9  108.7   16609   86.4   22.4   0.9   1.9   5.2   6.4   7.9   6.6   5.2   3.7   0.0   0.0   0.1   0.8   2.1   1.3   1.5  2.14  1.06  0.64  0.00  0.00   36.62   36.61    5.47    0.00    0.00
 2000 304    66     0     0    14.1  108.2   16609   86.2   22.0   1.1   2.0   5.2   6.3   7.8   6.5   5.2   3.7   0.0   0.0   0.1   0.7   1.9   1.3   1.5  2.14  1.06  0.64  0.00  0.00   37.24   37.35    5.52    0.00    0.00
 2000 305    67     0     0    14.2  107.5   16608   85.9   21.6   1.2   2.1   5.2   6.2   7.7   6.5   5.1   3.7   0.0   0.0   0.1   0.6   1.8   1.3   1.4  2.14  1.05  0.63  0.00  0.00   37.87   38.10    5.55    0.00    0.00
 2000 306    68     0     0    14.2  106.7   16608   85.6   21.1   1.0   2.2   5.3   6.2   7.7   6.4   5.1   3.7   0.0   0.0   0.1   0.6   1.7   1.2   1.4  2.13  1.04  0.63  0.00  0.00   38.53   38.94    5.56    0.00    0.00
 2000 307    69     0     0    14.3  106.5   16607   85.6   21.0   1.0   2.2   5.3   6.3   7.6   6.4   5.1   3.7   0.0   0.0   0.2   0.7   1.6   1.1   1.4  2.13  1.04  0.62  0.00  0.00   39.18   39.53    5.57    0.00    0.00
 2000 308    70     0     0    14.3  105.7   16606   85.2   20.6   1.3   2.2   5.3   6.3   7.6   6.4   5.1   3.7   0.0   0.0   0.1   0.7   1.4   1.1   1.4  2.12  1.03  0.62  0.00  0.00   39.84   40.24    5.58    0.00    0.00
 2000 309    71     0     0    14.3  104.7   16606   84.7   19.9   1.4   2.2   5.2   6.2   7.6   6.3   5.0   3.7   0.0   0.0   0.1   0.6   1.3   1.0   1.3  2.11  1.02  0.61  0.00  0.00   40.52   41.18    5.58    0.00    0.00
 2000 310    72     0     0    14.3  103.9   16605   84.5   19.4   1.6   2.3   5.1   6.2   7.5   6.3   5.0   3.7   0.0   0.0   0.1   0.6   1.3   1.0   1.3  2.09  1.02  0.61  0.00  0.00   41.17   42.02    5.59    0.00    0.00
 2000 311    73     0     0    14.3  102.4   16604   83.7   18.7   1.7   2.3   5.0   6.2   7.5   6.2   5.0   3.7   0.0   0.0   0.1   0.5   1.2   0.9   1.2  2.05  0.98  0.60  0.00  0.00   41.81   42.91    5.59    0.00    0.00
 2000 312    74     0     0    14.3  100.7   16604   82.7   18.0   1.9   2.3   4.8   6.1   7.4   6.1   5.0   3.7   0.0   0.0   0.1   0.5   1.1   0.9   1.1  2.01  0.95  0.59  0.00  0.00   42.46   43.77    5.59    0.00    0.00
 2000 313    75     0     0    14.3   99.8   16603   82.2   17.6   2.0   2.4   4.7   6.0   7.4   6.1   4.9   3.7   0.0   0.0   0.1   0.5   1.0   0.8   1.1  1.98  0.92  0.58  0.00  0.00   43.12   44.58    5.59    0.00    0.00
 2000 314    76     0     0    14.3   98.3   16602   81.3   17.0   2.1   2.4   4.6   6.0   7.3   6.0   4.9   3.6   0.0   0.0   0.1   0.5   1.0   0.8   1.0  1.94  0.89  0.58  0.00  0.00   43.78   45.38    5.59    0.00    0.00
 2000 315    77     0     0    14.3   97.6   16602   81.0   16.6   2.2   2.4   4.5   5.9   7.2   5.9   4.9   3.6   0.0   0.0   0.1   0.5   1.0   0.8   1.0  1.91  0.86  0.57  0.00  0.00   44.43   46.15    5.59    0.00    0.00
 2000 316    78     0     0    14.3   95.2   16601   79.3   16.0   1.3   2.5   4.5   5.8   7.1   5.8   4.8   3.6   0.0   0.0   0.1   0.5   0.9   0.7   0.9  1.85  0.83  0.55  0.00  0.00   45.07   46.92    5.59    0.00    0.00
 2000 317    79     0     0    14.3   92.5   16600   77.0   15.5   1.3   2.4   4.0   5.7   6.9   5.7   4.7   3.6   0.0   0.0   0.1   0.6   0.9   0.7   0.9  1.79  0.80  0.53  0.00  0.00   45.72   47.43    5.59    0.00    0.00
 2000 318    80     0     0    14.3   89.6   16600   74.9   14.7   1.4   2.2   3.6   5.5   6.8   5.5   4.7   3.6   0.0   0.0   0.1   0.5   0.8   0.6   0.8  1.74  0.76  0.51  0.00  0.00   46.39   48.21    5.59    0.00    0.00
 2000 319    81     0     0    14.3   87.1   16599   73.0   14.2   1.5   2.1   3.3   5.4   6.6   5.4   4.6   3.5   0.0   0.0   0.1   0.5   0.7   0.6   0.8  1.69  0.73  0.50  0.00  0.00   47.05   48.90    5.59    0.00    0.00
 2000 320    82     0     0    14.3   85.3   16598   71.5   13.7   1.7   2.0   3.1   5.2   6.5   5.3   4.6   3.5   0.0   0.0   0.1   0.5   0.7   0.6   0.7  1.65  0.71  0.48  0.00  0.00   47.68   49.54    5.59    0.00    0.00
 2000 321    83     0     0    14.3   83.5   16598   70.2   13.4   1.7   2.0   2.9   5.1   6.4   5.2   4.5   3.5   0.0   0.0   0.1   0.5   0.7   0.5   0.7  1.61  0.68  0.47  0.00  0.00   48.28   50.14    5.59    0.00    0.00
 2000 322    84     0     0    14.3   80.3   16597   67.6   12.7   1.8   1.9   2.5   4.9   6.1   5.1   4.4   3.5   0.0   0.0   0.1   0.5   0.6   0.5   0.6  1.54  0.65  0.46  0.00  0.00   48.85   50.70    5.59    0.00    0.00
 2000 323    85     0     0    14.3   76.2   16597   64.1   12.0   1.8   1.7   2.2   4.6   5.8   4.8   4.2   3.4   0.0   0.0   0.1   0.5   0.5   0.5   0.6  1.46  0.61  0.45  0.00  0.00   49.43   51.24    5.59    0.00    0.00
 2000 324    86     0     0    14.3   71.5   16596   60.1   11.4   1.8   1.6   1.8   4.2   5.4   4.5   4.1   3.3   0.0   0.0   0.1   0.5   0.6   0.5   0.5  1.36  0.57  0.44  0.00  0.00   50.02   51.79    5.59    0.00    0.00
 2000 325    87     0     0    14.3   66.9   16595   56.1   10.8   1.8   1.5   1.5   3.8   5.0   4.2   3.8   3.2   0.0   0.0   0.1   0.5   0.6   0.5   0.5  1.26  0.53  0.43  0.00  0.00   50.68   52.37    5.59    0.00    0.00
 2000 326    88     0     0    14.3   62.8   16595   52.6   10.3   1.8   1.4   1.2   3.5   4.7   4.0   3.7   3.1   0.0   0.0   0.1   0.4   0.6   0.5   0.5  1.16  0.49  0.42  0.00  0.00   51.35   52.98    5.59    0.00    0.00
 2000 327    89     0     0    14.3   57.8   16594   48.1    9.8   1.8   1.3   1.0   3.2   4.2   3.6   3.4   3.0   0.0   0.0   0.1   0.4   0.6   0.5   0.5  1.05  0.49  0.41  0.00  0.00   52.01   53.58    5.59    0.00    0.00
 2000 328    90     0     0    14.3   53.1   16593   43.8    9.3   1.0   1.5   0.9   2.8   3.8   3.2   3.1   2.9   0.0   0.0   0.1   0.4   0.5   0.5   0.5  0.94  0.49  0.40  0.00  0.00   52.68   54.17    5.59    0.00    0.00
 2000 329    91     0     0    14.3   48.3   16593   39.3    9.0   0.7   1.2   0.7   2.5   3.4   2.9   2.9   2.8   0.0   0.0   0.1   0.5   0.6   0.5   0.5  0.84  0.48  0.39  0.00  0.00   53.42   54.65    5.59    0.00    0.00
 2000 330    92     0     0    14.3   45.3   16592   36.6    8.7   0.6   0.9   0.7   2.3   3.1   2.7   2.7   2.7   0.0   0.0   0.1   0.5   0.6   0.5   0.5  0.78  0.48  0.38  0.00  0.00   54.14   55.26    5.59    0.00    0.00
 2000 331    93     0     0    14.3   40.5   16591   32.3    8.3   0.6   0.5   0.5   2.0   2.7   2.4   2.5   2.5   0.0   0.0   0.1   0.5   0.6   0.5   0.5  0.68  0.47  0.37  0.00  0.00   54.85   55.85    5.59    0.00    0.00
 2000 332    94     0     0    14.3   35.6   16591   27.9    7.7   0.6   0.4   0.6   1.7   2.3   2.0   2.1   2.3   0.0   0.0   0.1   0.5   0.5   0.5   0.5  0.57  0.47  0.37  0.00  0.00   55.55   56.45    5.59    0.00    0.00
 2000 333    95     0     0    14.3   31.9   16590   24.4    7.5   0.7   0.5   0.4   1.4   1.9   1.6   1.9   2.2   0.0   0.0   0.1   0.5   0.5   0.5   0.5  0.51  0.47  0.36  0.00  0.00   56.22   57.02    5.59    0.00    0.00
 2000 334    96     0     0    14.3   29.6   16589   22.2    7.4   0.7   0.5   0.5   1.3   1.7   1.4   1.7   2.1   0.0   0.0   0.1   0.5   0.5   0.5   0.5  0.51  0.46  0.35  0.00  0.00   56.84   57.53    5.59    0.00    0.00
 2000 335    97     0     0    14.3   26.8   16589   19.4    7.4   0.7   0.6   0.5   1.1   1.4   1.2   1.5   1.9   0.0   0.0   0.1   0.4   0.5   0.5   0.5  0.51  0.46  0.34  0.00  0.00   57.45   58.04    5.59    0.00    0.00
 2000 336    98     0     0    14.3   23.9   16588   16.6    7.3   0.4   0.6   0.5   0.9   1.1   1.0   1.2   1.7   0.0   0.0   0.1   0.4   0.5   0.5   0.5  0.51  0.46  0.34  0.00  0.00   58.02   58.53    5.59    0.00    0.00
 2000 337    99     0     0    14.3   21.7   16588   14.2    7.5   0.5   0.3   0.6   0.8   0.9   0.8   1.1   1.6   0.0   0.0   0.1   0.5   0.6   0.5   0.5  0.51  0.45  0.33  0.00  0.00   58.67   58.90    5.59    0.00    0.00
 2000 338   100     0     0    14.3   19.6   16587   12.2    7.4   0.5   0.5   0.3   0.6   0.8   0.6   0.9   1.5   0.0   0.0   0.1   0.5   0.6   0.5   0.5  0.51  0.45  0.32  0.00  0.00   59.33   59.43    5.59    0.00    0.00
 2000 339   101     0     0    14.3   18.3   16586   10.8    7.5   0.6   0.5   0.4   0.5   0.6   0.5   0.8   1.3   0.0   0.0   0.1   0.6   0.6   0.5   0.5  0.51  0.45  0.32  0.00  0.00   60.02   59.85    5.59    0.00    0.00
 2000 340   102     0     0    14.3   17.4   16586   10.0    7.4   0.4   0.6   0.5   0.5   0.5   0.5   0.6   1.2   0.0   0.0   0.1   0.5   0.6   0.5   0.5  0.51  0.45  0.31  0.00  0.00   60.72   60.43    5.59    0.00    0.00
 2000 341   103     0     0    14.3   16.7   16585    9.3    7.4   0.5   0.4   0.5   0.5   0.4   0.5   0.5   1.1   0.0   0.0   0.1   0.5   0.6   0.5   0.5  0.51  0.44  0.30  0.00  0.00   61.42   60.97    5.59    0.00    0.00
 2000 342   104     0     0    14.3   16.1   16584    8.8    7.3   0.4   0.5   0.6   0.5   0.5   0.4   0.5   1.0   0.0   0.0   0.1   0.5   0.6   0.5   0.5  0.51  0.44  0.30  0.00  0.00   62.14   61.54    5.59    0.00    0.00
 2000 343   105     0     0    14.3   15.3   16584    8.0    7.3   0.6   0.4   0.3   0.4   0.5   0.4   0.5   0.9   0.0   0.0   0.1   0.5   0.6   0.5   0.5  0.51  0.44  0.29  0.00  0.00   62.85   62.13    5.59    0.00    0.00
 2000 344   106     0     0    14.3   15.5   16583    8.3    7.2   0.6   0.6   0.4   0.5   0.5   0.4   0.5   0.8   0.0   0.0   0.1   0.5   0.6   0.5   0.5  0.51  0.44  0.29  0.00  0.00   63.56   62.72    5.59    0.00    0.00
 2000 345   107     0     0    14.3   15.3   16582    8.1    7.1   0.7   0.4   0.5   0.5   0.5   0.4   0.5   0.7   0.0   0.0   0.1   0.4   0.5   0.5   0.5  0.51  0.43  0.28  0.00  0.00   64.27   63.36    5.59    0.00    0.00
 2000 346   108     0     0    14.3   15.4   16582    8.3    7.1   0.4   0.7   0.6   0.4   0.5   0.4   0.5   0.6   0.0   0.0   0.1   0.4   0.5   0.5   0.5  0.52  0.43  0.28  0.00  0.00   64.97   64.00    5.59    0.00    0.00
 2000 347   109     0     0    14.3   14.6   16581    7.3    7.3   0.5   0.3   0.3   0.5   0.5   0.4   0.4   0.6   0.0   0.0   0.1   0.5   0.6   0.5   0.5  0.51  0.43  0.27  0.00  0.00   65.80   64.48    5.59    0.00    0.00
 2000 348   110     0     0    14.3   14.7   16580    7.5    7.2   0.1   0.5   0.4   0.5   0.5   0.5   0.4   0.5   0.0   0.0   0.1   0.5   0.6   0.5   0.5  0.51  0.43  0.27  0.00  0.00   66.65   65.24    5.59    0.00    0.00
 2000 349   111     0     0    14.3   15.2   16579    7.6    7.6   0.3   0.5   0.4   0.5   0.5   0.5   0.5   0.5   0.0   0.0   0.1   0.6   0.6   0.5   0.5  0.52  0.43  0.26  0.00  0.00   67.54   65.51    5.59    0.00    0.00
 2000 350   112     0     0    14.3   14.5   16578    7.1    7.4   0.5   0.7   0.4   0.5   0.5   0.3   0.5   0.5   0.0   0.0   0.1   0.4   0.6   0.5   0.5  0.52  0.42  0.26  0.00  0.00   68.44   66.06    5.59    0.00    0.00
 2000 351   113     0     0    14.3   14.4   16578    7.0    7.4   0.6   0.3   0.5   0.5   0.5   0.3   0.5   0.5   0.0   0.0   0.1   0.6   0.6   0.5   0.5  0.52  0.42  0.25  0.00  0.00   69.33   66.45    5.59    0.00    0.00
 2000 352   114     0     0    14.3   13.7   16577    6.4    7.3   0.5   0.5   0.3   0.5   0.5   0.3   0.3   0.5   0.0   0.0   0.1   0.5   0.6   0.5   0.5  0.52  0.42  0.25  0.00  0.00   70.19   67.06    5.59    0.00    0.00
 2000 353   115     0     0    14.3   13.2   16576    6.0    7.1   0.6   0.6   0.4   0.3   0.3   0.3   0.4   0.5   0.0   0.0   0.1   0.5   0.6   0.5   0.5  0.52  0.42  0.25  0.00  0.00   71.01   67.68    5.59    0.00    0.00
 2000 354   116     0     0    14.3   13.2   16575    6.1    7.1   0.5   0.4   0.5   0.3   0.3   0.3   0.4   0.5   0.0   0.0   0.1   0.5   0.6   0.5   0.5  0.52  0.42  0.24  0.00  0.00   71.80   68.28    5.59    0.00    0.00
 2000 355   117     0     0    14.3   13.6   16574    6.5    7.1   0.6   0.5   0.5   0.4   0.4   0.3   0.4   0.5   0.0   0.0   0.1   0.5   0.6   0.5   0.5  0.52  0.42  0.24  0.00  0.00   72.57   68.85    5.59    0.00    0.00
 2000 356   118     0     0    14.3   13.1   16574    6.0    7.1   0.4   0.4   0.3   0.4   0.4   0.3   0.4   0.5   0.0   0.0   0.1   0.5   0.6   0.5   0.5  0.52  0.42  0.24  0.00  0.00   73.33   69.42    5.59    0.00    0.00
 2000 357   119     0     0    14.3   13.7   16573    6.6    7.1   0.5   0.5   0.4   0.5   0.4   0.3   0.4   0.5   0.0   0.0   0.1   0.5   0.6   0.5   0.5  0.52  0.41  0.23  0.00  0.00   74.09   70.00    5.59    0.00    0.00
 2000 358   120     0     0    14.3   13.8   16572    6.7    7.1   0.4   0.4   0.5   0.5   0.5   0.3   0.4   0.5   0.0   0.0   0.1   0.4   0.6   0.5   0.5  0.52  0.41  0.23  0.00  0.00   74.86   70.60    5.59    0.00    0.00
 2000 359   121     0     0    14.3   14.3   16572    7.3    7.0   0.5   0.5   0.5   0.6   0.5   0.3   0.4   0.5   0.0   0.0   0.1   0.4   0.6   0.5   0.5  0.52  0.41  0.23  0.00  0.00   75.58   71.14    5.59    0.00    0.00
 2000 360   122     0     0    14.3   13.4   16571    6.3    7.0   0.4   0.4   0.3   0.3   0.5   0.3   0.5   0.5   0.0   0.0   0.1   0.4   0.6   0.5   0.5  0.52  0.41  0.22  0.00  0.00   76.29   71.68    5.59    0.00    0.00
 2000 361   123     0     0    14.3   13.3   16570    6.3    7.0   0.3   0.5   0.5   0.3   0.3   0.3   0.5   0.5   0.0   0.0   0.1   0.4   0.6   0.5   0.5  0.52  0.41  0.22  0.00  0.00   76.99   72.23    5.59    0.00    0.00
 2000 362   124     0     0    14.3   13.9   16570    6.6    7.3   0.3   0.5   0.5   0.4   0.4   0.3   0.5   0.5   0.0   0.0   0.1   0.6   0.6   0.5   0.5  0.52  0.41  0.22  0.00  0.00   77.82   72.59    5.59    0.00    0.00
 2000 363   125     0     0    14.3   14.3   16569    6.7    7.5   0.4   0.5   0.5   0.4   0.4   0.4   0.5   0.5   0.0   0.0   0.3   0.6   0.6   0.5   0.5  0.52  0.41  0.22  0.00  0.00   78.64   72.77    5.59    0.00    0.00
 2000 364   126     0     0    14.3   14.6   16568    7.2    7.4   0.8   0.5   0.5   0.4   0.4   0.4   0.5   0.5   0.0   0.0   0.0   0.6   0.6   0.5   0.5  0.52  0.41  0.21  0.00  0.00   79.49   73.21    5.59    0.00    0.00
 2000 365   127     0     0    14.3   14.2   16567    6.8    7.5   0.2   0.3   0.5   0.4   0.4   0.4   0.5   0.5   0.0   0.0   0.2   0.6   0.6   0.5   0.5  0.52  0.41  0.21  0.00  0.00   80.33   73.42    5.59    0.00    0.00
 2000 366   128     0     0    14.3   14.1   16566    7.0    7.1   0.5   0.5   0.6   0.4   0.4   0.4   0.4   0.5   0.0   0.0   0.1   0.5   0.6   0.5   0.5  0.52  0.41  0.21  0.00  0.00   81.15   74.05    5.59    0.00    0.00
 2001 001   129     0     0    14.3   13.9   16566    6.9    7.0   0.4   0.6   0.3   0.5   0.4   0.4   0.4   0.5   0.0   0.0   0.1   0.5   0.6   0.5   0.5  0.52  0.41  0.21  0.00  0.00   81.94   74.61    5.59    0.00    0.00
 2001 002   130     0     0    14.3   14.1   16565    7.0    7.0   0.6   0.4   0.4   0.5   0.5   0.4   0.4   0.5   0.0   0.0   0.1   0.5   0.6   0.5   0.5  0.52  0.40  0.20  0.00  0.00   82.72   75.21    5.59    0.00    0.00
 2001 003   131     0     0    14.3   14.0   16564    7.0    7.0   0.5   0.6   0.5   0.3   0.5   0.4   0.4   0.5   0.0   0.0   0.1   0.5   0.6   0.5   0.5  0.52  0.40  0.20  0.00  0.00   83.53   75.82    5.59    0.00    0.00
 2001 004   132     0     0    14.3   14.2   16563    7.3    7.0   0.5   0.5   0.5   0.3   0.5   0.4   0.4   0.5   0.0   0.0   0.1   0.4   0.6   0.5   0.5  0.52  0.40  0.20  0.00  0.00   84.36   76.48    5.59    0.00    0.00
 2001 005   133     0     0    14.3   13.8   16563    6.8    7.0   0.6   0.7   0.3   0.4   0.3   0.4   0.4   0.5   0.0   0.0   0.1   0.4   0.6   0.5   0.5  0.52  0.40  0.20  0.00  0.00   85.27   77.16    5.59    0.00    0.00
 2001 006   134     0     0    14.3   13.8   16562    6.9    7.0   0.5   0.4   0.4   0.4   0.3   0.4   0.5   0.5   0.0   0.0   0.1   0.4   0.6   0.5   0.5  0.52  0.40  0.20  0.00  0.00   86.17   77.91    5.59    0.00    0.00
 2001 007   135     0     0    14.3   14.4   16561    7.4    6.9   0.0   0.6   0.6   0.5   0.4   0.4   0.5   0.5   0.0   0.0   0.1   0.4   0.6   0.5   0.5  0.52  0.40  0.19  0.00  0.00   87.08   78.60    5.59    0.00    0.00
 2001 008   136     0     0    14.3   14.2   16560    6.7    7.5   0.1   0.3   0.3   0.4   0.4   0.5   0.5   0.5   0.0   0.0   0.3   0.6   0.6   0.6   0.5  0.52  0.40  0.19  0.00  0.00   88.00   78.79    5.59    0.00    0.00
 2001 009   137     0     0    14.3   14.5   16559    7.2    7.3   0.5   0.3   0.3   0.4   0.4   0.5   0.5   0.5   0.0   0.0   0.0   0.6   0.6   0.5   0.5  0.52  0.40  0.19  0.00  0.00   88.92   79.26    5.59    0.00    0.00
 2001 010   138     0     0    14.3   14.2   16558    6.7    7.5   0.1   0.3   0.3   0.4   0.4   0.5   0.4   0.5   0.0   0.0   0.2   0.6   0.6   0.5   0.5  0.52  0.41  0.19  0.00  0.00   89.81   79.40    5.59    0.00    0.00
 2001 011   139     0     0    14.5   14.0   16558    6.5    7.5   0.1   0.4   0.4   0.4   0.4   0.5   0.4   0.4   0.0   0.0   0.3   0.6   0.6   0.5   0.5  0.52  0.42  0.19  0.00  0.00   90.64   79.54    5.59    0.00    0.00
 2001 012   140     0     0    14.6   14.1   16557    6.8    7.4   0.5   0.4   0.4   0.4   0.4   0.5   0.4   0.4   0.0   0.0   0.0   0.6   0.6   0.5   0.5  0.52  0.43  0.19  0.00  0.00   91.43   79.92    5.59    0.00    0.00
 2001 013   141     0     0    14.6   14.2   16556    7.0    7.2   0.3   0.6   0.4   0.4   0.4   0.5   0.4   0.4   0.0   0.0   0.1   0.5   0.6   0.5   0.5  0.52  0.44  0.19  0.00  0.00   92.20   80.35    5.60    0.00    0.00
 2001 014   142     0     0    14.6   14.3   16555    7.1    7.2   0.4   0.3   0.6   0.4   0.5   0.5   0.4   0.4   0.0   0.0   0.1   0.5   0.6   0.5   0.5  0.52  0.44  0.19  0.00  0.00   92.96   80.77    5.60    0.00    0.00
 2001 015   143     0     0    14.6   14.1   16555    6.7    7.5   0.5   0.3   0.2   0.4   0.5   0.5   0.4   0.4   0.0   0.0   0.1   0.6   0.6   0.5   0.5  0.52  0.45  0.19  0.00  0.00   93.72   80.95    5.60    0.00    0.00
 2001 016   144     0     0    14.6   14.2   16554    6.7    7.5   0.4   0.4   0.3   0.5   0.5   0.5   0.4   0.4   0.0   0.0   0.1   0.6   0.6   0.5   0.5  0.52  0.46  0.19  0.00  0.00   94.52   81.18    5.60    0.00    0.00
 2001 017   145     0     0    14.6   14.5   16553    7.3    7.2   0.6   0.6   0.3   0.5   0.5   0.5   0.4   0.4   0.0   0.0   0.1   0.5   0.6   0.5   0.5  0.52  0.47  0.20  0.00  0.00   95.36   81.79    5.61    0.00    0.00
 2001 018   146     0     0    14.6   14.2   16552    7.0    7.2   0.4   0.4   0.4   0.5   0.4   0.5   0.4   0.4   0.0   0.0   0.1   0.5   0.6   0.5   0.5  0.52  0.47  0.20  0.00  0.00   96.20   82.35    5.61    0.00    0.00
 2001 019   147     0     0    14.6   14.8   16552    7.7    7.2   0.6   0.6   0.5   0.5   0.4   0.5   0.4   0.5   0.0   0.0   0.1   0.5   0.6   0.5   0.5  0.52  0.46  0.20  0.00  0.00   97.04   82.99    5.61    0.00    0.00
 2001 020   148     0     0    14.6   14.5   16551    7.4    7.1   0.4   0.4   0.6   0.4   0.5   0.5   0.4   0.5   0.0   0.0   0.1   0.5   0.6   0.5   0.5  0.52  0.46  0.19  0.00  0.00   97.86   83.60    5.61    0.00    0.00
 2001 021   149     0     0    14.6   14.6   16550    7.4    7.1   0.6   0.5   0.3   0.4   0.5   0.5   0.4   0.5   0.0   0.0   0.1   0.5   0.6   0.5   0.5  0.52  0.46  0.19  0.00  0.00   98.66   84.20    5.61    0.00    0.00
 2001 022   150     0     0    14.6   14.7   16550    7.6    7.1   0.5   0.4   0.4   0.5   0.5   0.5   0.5   0.5   0.0   0.0   0.1   0.5   0.6   0.5   0.5  0.52  0.46  0.19  0.00  0.00   99.44   84.78    5.61    0.00    0.00
 2001 023   151     0     0    14.6   14.8   16549    7.7    7.1   0.6   0.5   0.5   0.5   0.4   0.5   0.5   0.5   0.0   0.0   0.1   0.5   0.6   0.5   0.5  0.52  0.45  0.19  0.00  0.00  100.20   85.36    5.61    0.00    0.00
 2001 024   152     0     0    14.6   13.7   16548    6.6    7.1   0.6   0.4   0.5   0.3   0.4   0.3   0.5   0.5   0.0   0.0   0.1   0.5   0.6   0.5   0.5  0.52  0.45  0.19  0.00  0.00  100.99   85.96    5.61    0.00    0.00
 2001 025   153     0     0    14.6   13.8   16547    6.7    7.1   0.6   0.6   0.3   0.3   0.5   0.3   0.5   0.5   0.0   0.0   0.1   0.4   0.6   0.5   0.5  0.52  0.45  0.19  0.00  0.00  101.78   86.60    5.61    0.00    0.00
 2001 026   154     0     0    14.6   13.9   16547    7.0    7.0   0.6   0.4   0.4   0.4   0.5   0.3   0.5   0.5   0.0   0.0   0.1   0.4   0.6   0.5   0.5  0.52  0.45  0.19  0.00  0.00  102.58   87.25    5.61    0.00    0.00
 2001 027   155     0     0    14.6   14.0   16546    7.1    7.0   0.2   0.7   0.5   0.4   0.5   0.3   0.4   0.5   0.0   0.0   0.1   0.4   0.6   0.5   0.5  0.52  0.45  0.18  0.00  0.00  103.44   87.92    5.61    0.00    0.00
 2001 028   156     0     0    14.6   14.4   16545    7.3    7.1   0.4   0.5   0.6   0.5   0.5   0.3   0.4   0.5   0.0   0.0   0.1   0.5   0.6   0.5   0.5  0.52  0.44  0.18  0.00  0.00  104.33   88.47    5.61    0.00    0.00
 2001 029   157     0     0    14.6   14.7   16544    7.6    7.1   0.6   0.6   0.6   0.5   0.5   0.3   0.4   0.5   0.0   0.0   0.1   0.5   0.6   0.5   0.5  0.52  0.44  0.18  0.00  0.00  105.19   89.15    5.61    0.00    0.00
 2001 030   158     0     0    14.6   13.4   16543    6.3    7.1   0.4   0.4   0.3   0.4   0.4   0.4   0.4   0.5   0.0   0.0   0.1   0.5   0.6   0.5   0.5  0.52  0.44  0.18  0.00  0.00  106.02   89.80    5.61    0.00    0.00
 2001 031   159     0     0    14.6   13.8   16543    6.8    7.0   0.6   0.6   0.4   0.4   0.4   0.4   0.5   0.4   0.0   0.0   0.1   0.5   0.6   0.5   0.5  0.52  0.44  0.18  0.00  0.00  106.80   90.39    5.61    0.00    0.00
 2001 032   160     0     0    14.6   13.9   16542    6.9    7.0   0.6   0.4   0.5   0.5   0.4   0.4   0.5   0.5   0.0   0.0   0.1   0.5   0.6   0.5   0.5  0.52  0.44  0.18  0.00  0.00  107.53   90.98    5.61    0.00    0.00
 2001 033   161     0     0    14.6   14.5   16541    7.5    7.0   0.7   0.6   0.5   0.5   0.5   0.4   0.5   0.5   0.0   0.0   0.1   0.4   0.6   0.5   0.5  0.52  0.44  0.18  0.00  0.00  108.27   91.57    5.61    0.00    0.00
 2001 034   162     0     0    14.6   14.1   16541    7.2    6.9   0.8   0.5   0.4   0.4   0.5   0.4   0.5   0.5   0.0   0.0   0.1   0.4   0.5   0.5   0.5  0.52  0.43  0.18  0.00  0.00  109.02   92.20    5.61    0.00    0.00
 2001 035   163     0     0    14.6   14.7   16540    7.8    6.9   0.5   0.7   0.5   0.5   0.5   0.4   0.5   0.5   0.0   0.0   0.1   0.4   0.5   0.5   0.5  0.52  0.43  0.18  0.00  0.00  109.76   92.82    5.61    0.00    0.00
 2001 036   164     0     0    14.6   14.8   16539    7.7    7.1   0.6   0.6   0.4   0.5   0.5   0.4   0.5   0.5   0.0   0.0   0.1   0.5   0.6   0.5   0.5  0.52  0.43  0.17  0.00  0.00  110.63   93.29    5.61    0.00    0.00
 2001 037   165     0     0    14.6   15.2   16538    8.2    7.0   0.8   0.7   0.5   0.6   0.5   0.4   0.5   0.5   0.0   0.0   0.1   0.5   0.6   0.5   0.5  0.52  0.43  0.17  0.00  0.00  111.48   94.01    5.61    0.00    0.00
 2001 038   166     0     0    14.6   16.0   16538    8.8    7.2   0.9   0.9   0.6   0.6   0.6   0.4   0.5   0.5   0.0   0.0   0.1   0.5   0.6   0.5   0.5  0.53  0.43  0.17  0.00  0.00  112.35   94.67    5.61    0.00    0.00
 2001 039   167     0     0    14.6   16.9   16537    9.6    7.4   0.6   0.9   0.8   0.8   0.6   0.4   0.5   0.5   0.0   0.0   0.1   0.5   0.7   0.5   0.5  0.55  0.43  0.17  0.00  0.00  113.24   95.38    5.61    0.00    0.00
 2001 040   168     0     0    14.6   17.9   16536    9.9    8.0   0.7   1.0   0.8   0.8   0.7   0.4   0.6   0.5   0.0   0.0   0.1   0.6   0.9   0.6   0.5  0.57  0.43  0.17  0.00  0.00  114.18   95.70    5.61    0.00    0.00
 2001 041   169     0     0    14.6   18.8   16535   10.3    8.6   1.0   1.0   0.8   0.8   0.8   0.4   0.6   0.5   0.0   0.0   0.1   0.8   1.0   0.6   0.5  0.59  0.42  0.17  0.00  0.00  115.16   96.13    5.61    0.00    0.00
 2001 042   170     0     0    14.6   19.9   16534   11.0    8.9   1.0   1.4   0.9   0.8   0.8   0.4   0.6   0.5   0.0   0.0   0.1   0.6   1.2   0.7   0.5  0.60  0.42  0.17  0.00  0.00  116.17   96.83    5.61    0.00    0.00

*DSSAT Cropping System Model Ver. 4.0.2.000               Aug 29, 2016; 09:16:37

*RUN   2        : UYSB                    
 MODEL          : CRGRO040 - Soybean         
 EXPERIMENT     : UYSB0405 SB    late to create DSS                             
 TREATMENT  1   : UYSB                    

@YEAR DOY   DAS  NAPC  NI#M    NLCC   NIAD    NOAD   NITD   NHTD  NI1D  NI2D  NI3D  NI4D  NI5D  NI6D  NI7D  NI8D  NI9D  NI10  NH1D  NH2D  NH3D  NH4D  NH5D  NH6D  NH7D  NH8D  NH9D  NH10    NMNC    NITC    NDNC    NIMC    AMLC
 2001 238     0     0     0     0.0   99.4   16645   76.8   22.6  12.2  17.3  15.1   8.6   4.6   0.0   0.1   0.1   0.0   0.0   0.3   1.3   1.5   1.4   1.4  1.50  1.46  1.45  0.00  0.00    0.60    1.96    0.00    0.00    0.00
 2001 239     1     0     0     0.0  100.0   16645   78.1   21.9  12.2  17.7  15.4   8.7   4.6   0.0   0.1   0.1   0.0   0.0   0.1   1.1   1.4   1.4   1.4  1.51  1.43  1.41  0.00  0.00    1.24    3.34    0.00    0.00    0.00
 2001 240     2     0     0     0.0  100.6   16644   79.3   21.3  12.3  17.8  15.6   8.8   4.7   0.1   0.1   0.2   0.0   0.0   0.1   1.0   1.4   1.3   1.3  1.51  1.39  1.36  0.00  0.00    1.86    4.54    0.00    0.00    0.00
 2001 241     3     0     0     0.0  101.2   16644   80.4   20.8   5.7  16.3  19.2   8.9   4.8   0.1   0.2   0.2   0.0   0.0   0.1   0.9   1.4   1.3   1.3  1.51  1.36  1.32  0.00  0.00    2.45    5.63    0.00    0.00    0.00
 2001 242     4     0     0     0.0  101.8   16643   81.3   20.5   5.6  15.8  19.6   9.0   4.8   0.1   0.2   0.3   0.0   0.0   0.1   1.0   1.4   1.2   1.3  1.52  1.33  1.28  0.00  0.00    3.05    6.52    0.00    0.00    0.00
 2001 243     5     0     0     0.0  102.4   16642   82.4   20.0   3.1  12.8  20.1  11.4   4.9   0.1   0.3   0.3   0.0   0.0   0.1   0.9   1.3   1.2   1.2  1.52  1.30  1.24  0.00  0.00    3.67    7.60    0.00    0.00    0.00
 2001 244     6     0     0     0.5  102.5   16642   82.5   20.0   0.9   6.3  13.9  11.0  10.3   2.4   0.2   0.4   0.0   0.0   0.2   0.9   1.4   1.1   1.2  1.52  1.27  1.20  0.00  0.00    4.27    8.22    0.00    0.00    0.00
 2001 245     7     0     0     0.7  102.9   16641   82.4   20.4   0.6   5.0  12.5  10.6  10.3   3.2   0.7   0.5   0.0   0.0   0.3   1.0   1.5   1.2   1.2  1.54  1.28  1.20  0.00  0.00    4.87    8.38    0.00    0.00    0.00
 2001 246     8     0     0     0.8  103.4   16641   82.6   20.9   0.6   4.9  12.3  10.5  10.3   3.3   0.9   0.5   0.0   0.0   0.3   1.1   1.6   1.2   1.2  1.56  1.28  1.20  0.00  0.00    5.47    8.56    0.00    0.00    0.00
 2001 247     9     0     0     1.0  103.8   16640   82.5   21.2   0.7   4.9  12.1  10.2  10.0   3.4   1.1   0.6   0.0   0.0   0.4   1.2   1.7   1.2   1.2  1.57  1.28  1.19  0.00  0.00    6.05    8.75    0.00    0.00    0.00
 2001 248    10     0     0     1.2  104.0   16639   82.6   21.4   1.0   4.9  11.9  10.1   9.9   3.5   1.2   0.6   0.0   0.0   0.2   1.2   1.7   1.2   1.3  1.59  1.29  1.19  0.00  0.00    6.57    9.10    0.10    0.00    0.00
 2001 249    11     0     0     1.2  104.4   16639   82.9   21.4   1.2   5.0  11.8  10.0   9.8   3.6   1.3   0.6   0.0   0.0   0.2   1.1   1.8   1.2   1.3  1.60  1.29  1.18  0.00  0.00    7.05    9.56    0.22    0.00    0.00
 2001 250    12     0     0     2.0  104.0   16639   82.5   21.5   0.6   3.1   9.0   9.0   9.7   4.9   2.3   1.1   0.0   0.0   0.1   1.0   1.8   1.3   1.3  1.62  1.29  1.17  0.00  0.00    7.52    9.98    0.29    0.00    0.00
 2001 251    13     0     0     2.5  103.6   16638   81.8   21.8   0.6   3.0   8.7   8.7   9.4   5.0   2.5   1.2   0.0   0.0   0.2   1.1   1.9   1.3   1.3  1.63  1.29  1.17  0.00  0.00    8.00   10.12    0.63    0.00    0.00
 2001 252    14     0     0     2.9  103.5   16638   81.4   22.1   0.7   3.0   8.6   8.5   9.2   5.0   2.6   1.3   0.0   0.0   0.1   1.1   2.0   1.3   1.3  1.65  1.29  1.16  0.00  0.00    8.48   10.37    0.84    0.00    0.00
 2001 253    15     0     0     3.1  103.6   16637   81.5   22.1   0.9   3.1   8.6   8.4   9.1   5.0   2.7   1.4   0.0   0.0   0.1   1.0   2.0   1.3   1.3  1.66  1.29  1.16  0.00  0.00    8.98   10.81    0.95    0.00    0.00
 2001 254    16     0     0     3.3  103.9   16637   82.0   22.0   1.1   3.3   8.7   8.3   9.0   5.0   2.7   1.4   0.0   0.0   0.1   0.9   1.9   1.3   1.3  1.68  1.29  1.15  0.00  0.00    9.47   11.44    1.00    0.00    0.00
 2001 255    17     0     0     3.3  104.4   16636   82.5   21.9   1.3   3.4   8.8   8.3   9.0   5.0   2.8   1.5   0.0   0.0   0.1   0.9   1.9   1.3   1.3  1.69  1.29  1.14  0.00  0.00    9.97   12.05    1.03    0.00    0.00
 2001 256    18     0     0     3.3  104.8   16636   83.0   21.8   1.4   3.5   8.9   8.3   9.0   5.0   2.8   1.5   0.0   0.0   0.1   0.8   1.8   1.3   1.3  1.70  1.29  1.13  0.00  0.00   10.47   12.64    1.05    0.00    0.00
 2001 257    19     0     0     3.3  105.3   16635   83.6   21.7   1.6   3.6   9.0   8.4   9.0   5.0   2.8   1.5   0.0   0.0   0.1   0.7   1.8   1.3   1.4  1.72  1.29  1.12  0.00  0.00   10.98   13.24    1.07    0.00    0.00
 2001 258    20     0     0     3.3  105.7   16635   84.2   21.5   1.7   3.8   9.1   8.4   9.1   5.0   2.8   1.5   0.0   0.0   0.1   0.7   1.7   1.3   1.4  1.73  1.29  1.11  0.00  0.00   11.49   13.91    1.08    0.00    0.00
 2001 259    21     0     0     3.3  106.2   16634   84.9   21.4   1.9   3.9   9.2   8.5   9.1   5.0   2.8   1.5   0.0   0.0   0.1   0.7   1.7   1.3   1.4  1.74  1.28  1.10  0.00  0.00   11.99   14.56    1.09    0.00    0.00
 2001 260    22     0     0     3.3  106.7   16634   85.4   21.2   2.0   4.0   9.3   8.6   9.1   5.0   2.8   1.5   0.0   0.0   0.1   0.6   1.6   1.2   1.4  1.76  1.28  1.09  0.00  0.00   12.46   15.15    1.11    0.00    0.00
 2001 261    23     0     0     3.3  107.1   16633   86.0   21.1   2.1   4.1   9.4   8.6   9.1   5.0   2.8   1.5   0.0   0.0   0.1   0.6   1.6   1.2   1.4  1.77  1.28  1.08  0.00  0.00   12.92   15.72    1.12    0.00    0.00
 2001 262    24     0     0     3.3  107.5   16633   86.5   21.0   2.3   4.1   9.5   8.7   9.1   5.0   2.8   1.6   0.0   0.0   0.1   0.6   1.6   1.1   1.4  1.78  1.28  1.08  0.00  0.00   13.38   16.29    1.13    0.00    0.00
 2001 263    25     0     0     3.3  108.0   16632   87.1   20.9   2.4   4.2   9.6   8.8   9.1   5.0   2.8   1.6   0.0   0.0   0.1   0.6   1.5   1.1   1.4  1.80  1.28  1.07  0.00  0.00   13.87   16.87    1.14    0.00    0.00
 2001 264    26     0     0     3.3  108.5   16632   87.6   20.8   2.6   4.3   9.7   8.8   9.2   5.0   2.9   1.6   0.0   0.0   0.1   0.6   1.5   1.1   1.4  1.81  1.28  1.06  0.00  0.00   14.42   17.51    1.15    0.00    0.00
 2001 265    27     0     0     3.3  109.0   16631   88.3   20.7   2.7   4.5   9.8   8.9   9.2   5.0   2.9   1.6   0.0   0.0   0.1   0.6   1.5   1.0   1.4  1.82  1.28  1.05  0.00  0.00   15.04   18.21    1.17    0.00    0.00
 2001 266    28     0     0     3.3  109.7   16630   89.1   20.5   2.9   4.6  10.0   8.9   9.3   5.0   2.9   1.6   0.0   0.0   0.1   0.5   1.4   1.0   1.4  1.84  1.27  1.04  0.00  0.00   15.70   19.08    1.17    0.00    0.00
 2001 267    29     0     0     3.3  110.3   16630   90.0   20.3   3.1   4.7  10.1   9.0   9.4   5.0   2.9   1.6   0.0   0.0   0.1   0.5   1.4   1.0   1.3  1.85  1.27  1.03  0.00  0.00   16.36   19.93    1.18    0.00    0.00
 2001 268    30     0     0     3.3  110.9   16629   90.8   20.2   2.7   5.1  10.2   9.1   9.4   5.0   2.9   1.6   0.0   0.0   0.1   0.5   1.4   0.9   1.3  1.87  1.27  1.02  0.00  0.00   17.05   20.79    1.19    0.00    0.00
 2001 269    31     0     0     3.3  111.6   16628   91.4   20.1   2.9   5.1  10.4   9.1   9.5   5.0   2.9   1.6   0.0   0.0   0.1   0.6   1.3   0.9   1.2  1.88  1.27  1.02  0.00  0.00   17.70   21.47    1.20    0.00    0.00
 2001 270    32     0     0     3.3  112.1   16628   92.2   20.0   2.3   5.1  10.8   9.3   9.6   5.0   2.9   1.7   0.0   0.0   0.1   0.6   1.3   0.9   1.2  1.90  1.27  1.01  0.00  0.00   18.32   22.23    1.21    0.00    0.00
 2001 271    33     0     0     3.4  112.6   16627   92.5   20.2   2.3   5.0  10.6   9.4   9.7   5.1   2.9   1.7   0.0   0.0   0.2   0.7   1.4   0.9   1.1  1.91  1.27  1.00  0.00  0.00   18.88   22.61    1.22    0.00    0.00
 2001 272    34     0     0     5.4  111.1   16627   90.8   20.3   0.9   2.9   7.7   8.0   9.3   6.2   4.1   2.5   0.0   0.0   0.1   0.7   1.5   0.9   1.1  1.92  1.27  0.99  0.00  0.00   19.43   23.00    1.23    0.00    0.00
 2001 273    35     0     0     7.1  109.7   16626   89.1   20.6   0.6   2.4   6.8   7.4   8.8   6.5   4.5   2.9   0.0   0.0   0.1   0.8   1.5   0.9   1.1  1.94  1.27  0.99  0.00  0.00   19.94   23.18    1.36    0.00    0.00
 2001 274    36     0     0    13.9  103.3   16626   82.3   21.0   0.2   1.2   4.4   5.5   7.1   6.5   5.3   4.4   0.0   0.0   0.2   0.9   1.6   0.9   1.1  1.95  1.27  0.99  0.00  0.00   20.45   23.31    1.50    0.00    0.00
 2001 275    37     0     0    15.1  102.2   16625   80.8   21.3   0.2   1.1   4.1   5.1   6.9   6.5   5.4   4.5   0.0   0.0   0.3   0.9   1.7   1.0   1.2  1.97  1.28  0.99  0.00  0.00   20.92   23.42    1.77    0.00    0.00
 2001 276    38     0     0    15.8  101.7   16625   80.1   21.6   0.4   1.1   4.0   5.0   6.8   6.4   5.4   4.5   0.0   0.0   0.2   1.0   1.7   1.0   1.2  1.98  1.28  0.98  0.00  0.00   21.45   23.67    2.04    0.00    0.00
 2001 277    39     0     0    16.4  101.4   16624   79.5   21.9   0.5   1.1   3.9   4.9   6.7   6.3   5.5   4.5   0.0   0.0   0.1   1.1   1.8   1.0   1.2  2.00  1.28  0.98  0.00  0.00   22.00   23.89    2.31    0.00    0.00
 2001 278    40     0     0    18.0  100.0   16623   77.8   22.2   0.6   1.1   3.8   4.7   6.4   6.2   5.4   4.5   0.0   0.0   0.1   1.1   1.8   1.0   1.2  2.01  1.29  0.98  0.00  0.00   22.55   24.12    2.55    0.00    0.00
 2001 279    41     0     0    18.9   99.3   16623   77.1   22.3   0.7   1.3   3.8   4.7   6.3   6.1   5.3   4.4   0.0   0.0   0.1   1.0   1.9   1.0   1.2  2.02  1.29  0.98  0.00  0.00   23.10   24.58    2.68    0.00    0.00
 2001 280    42     0     0    19.2   99.4   16622   77.1   22.3   0.5   1.3   3.4   4.5   6.2   6.3   5.5   4.5   0.0   0.0   0.1   0.9   1.9   1.1   1.2  2.03  1.29  0.97  0.00  0.00   23.65   25.05    2.75    0.00    0.00
 2001 281    43     0     0    20.9   97.9   16622   75.3   22.7   0.5   1.3   3.3   4.3   5.9   6.1   5.4   4.5   0.0   0.0   0.2   1.0   2.0   1.1   1.3  2.05  1.29  0.97  0.00  0.00   24.21   25.22    2.99    0.00    0.00
 2001 282    44     0     0    21.2   98.0   16621   75.1   22.9   0.7   1.3   3.3   4.2   5.9   6.1   5.4   4.6   0.0   0.0   0.1   1.0   2.1   1.1   1.3  2.06  1.29  0.96  0.00  0.00   24.77   25.53    3.13    0.00    0.00
 2001 283    45     0     0    22.0   97.5   16621   74.5   23.0   0.8   1.4   3.3   4.1   5.8   6.0   5.4   4.6   0.0   0.0   0.1   0.9   2.1   1.1   1.3  2.07  1.29  0.95  0.00  0.00   25.32   25.99    3.25    0.00    0.00
 2001 284    46     0     0    22.5   97.3   16620   74.3   23.0   1.0   1.6   3.3   4.1   5.7   5.9   5.4   4.6   0.0   0.0   0.1   0.8   2.1   1.1   1.3  2.08  1.29  0.95  0.00  0.00   25.89   26.46    3.31    0.00    0.00
 2001 285    47     0     0    22.8   97.3   16620   74.5   22.8   1.1   1.7   3.5   4.1   5.7   5.9   5.3   4.6   0.0   0.0   0.1   0.7   2.0   1.2   1.3  2.09  1.29  0.94  0.00  0.00   26.46   27.16    3.35    0.00    0.00
 2001 286    48     0     0    22.9   97.6   16619   75.0   22.6   1.2   1.9   3.6   4.1   5.6   5.9   5.3   4.6   0.0   0.0   0.1   0.7   1.9   1.2   1.3  2.10  1.29  0.93  0.00  0.00   27.04   27.85    3.37    0.00    0.00
 2001 287    49     0     0    22.9   97.9   16618   75.5   22.4   1.4   2.0   3.7   4.1   5.7   5.9   5.3   4.6   0.0   0.0   0.1   0.6   1.9   1.2   1.3  2.11  1.28  0.92  0.00  0.00   27.64   28.54    3.38    0.00    0.00
 2001 288    50     0     0    22.9   98.2   16618   76.0   22.2   1.0   2.0   3.9   4.3   5.7   5.9   5.4   4.6   0.0   0.0   0.1   0.6   1.8   1.1   1.3  2.12  1.28  0.92  0.00  0.00   28.26   29.35    3.39    0.00    0.00
 2001 289    51     0     0    23.0   98.6   16617   76.1   22.5   0.9   2.0   3.9   4.3   5.7   5.9   5.4   4.6   0.0   0.0   0.2   0.7   1.8   1.1   1.3  2.13  1.28  0.91  0.00  0.00   28.87   29.58    3.42    0.00    0.00
 2001 290    52     0     0    23.1   98.8   16617   76.0   22.7   0.8   1.7   3.6   4.1   5.6   6.1   5.6   4.7   0.0   0.0   0.1   0.8   1.9   1.2   1.3  2.14  1.27  0.90  0.00  0.00   29.48   29.91    3.45    0.00    0.00
 2001 291    53     0     0    24.8   97.3   16616   74.3   23.0   0.9   1.7   3.5   3.9   5.4   5.9   5.5   4.7   0.0   0.0   0.1   0.9   2.0   1.2   1.4  2.15  1.27  0.89  0.00  0.00   30.10   30.17    3.59    0.00    0.00
 2001 292    54     0     0    25.7   96.6   16615   73.6   23.1   1.0   1.9   3.5   3.9   5.2   5.8   5.4   4.7   0.0   0.0   0.1   0.7   2.0   1.2   1.4  2.16  1.27  0.89  0.00  0.00   30.75   30.67    3.67    0.00    0.00
 2001 293    55     0     0    25.8   96.7   16615   73.6   23.1   1.1   2.0   3.5   3.8   5.2   5.8   5.5   4.8   0.0   0.0   0.1   0.7   2.1   1.2   1.4  2.16  1.26  0.88  0.00  0.00   31.41   31.19    3.74    0.00    0.00
 2001 294    56     0     0    26.2   96.3   16614   73.6   22.8   1.3   2.1   3.6   3.8   5.1   5.7   5.4   4.7   0.0   0.0   0.1   0.6   1.9   1.2   1.4  2.17  1.26  0.87  0.00  0.00   32.10   32.02    3.79    0.00    0.00
 2001 295    57     0     0    26.4   96.2   16613   73.7   22.5   1.5   2.3   3.7   3.8   5.1   5.7   5.4   4.8   0.0   0.0   0.1   0.6   1.8   1.2   1.4  2.17  1.25  0.86  0.00  0.00   32.79   32.80    3.82    0.00    0.00
 2001 296    58     0     0    26.4   96.3   16613   74.0   22.3   1.6   2.3   3.8   3.8   5.1   5.6   5.4   4.8   0.0   0.0   0.1   0.5   1.7   1.2   1.4  2.17  1.25  0.85  0.00  0.00   33.45   33.52    3.84    0.00    0.00
 2001 297    59     0     0    26.4   96.2   16612   74.3   22.0   1.8   2.4   3.9   3.8   5.1   5.6   5.4   4.8   0.0   0.0   0.1   0.5   1.6   1.2   1.4  2.17  1.24  0.85  0.00  0.00   34.10   34.31    3.85    0.00    0.00
 2001 298    60     0     0    26.4   95.9   16611   74.3   21.6   1.9   2.5   4.0   3.9   5.1   5.6   5.4   4.8   0.0   0.0   0.1   0.5   1.5   1.1   1.4  2.17  1.23  0.84  0.00  0.00   34.75   35.07    3.86    0.00    0.00
 2001 299    61     0     0    26.7   95.2   16611   74.0   21.2   0.9   1.9   3.6   3.8   4.9   5.8   5.7   4.9   0.0   0.0   0.1   0.5   1.4   1.1   1.4  2.16  1.22  0.83  0.00  0.00   35.42   35.84    3.87    0.00    0.00
 2001 300    62     0     0    33.5   88.3   16610   66.7   21.6   0.3   1.2   2.7   3.1   4.1   5.3   5.5   5.2   0.0   0.0   0.2   0.6   1.5   1.1   1.4  2.17  1.22  0.82  0.00  0.00   36.09   36.02    4.04    0.00    0.00
 2001 301    63     0     0    35.3   86.4   16609   64.6   21.8   0.5   1.0   2.5   2.9   3.9   5.1   5.4   5.2   0.0   0.0   0.1   0.7   1.5   1.1   1.4  2.17  1.22  0.82  0.00  0.00   36.76   36.32    4.22    0.00    0.00
 2001 302    64     0     0    36.3   85.2   16609   63.2   22.0   0.5   0.9   2.4   2.8   3.8   5.0   5.3   5.1   0.0   0.0   0.1   0.8   1.6   1.1   1.4  2.18  1.22  0.82  0.00  0.00   37.44   36.54    4.40    0.00    0.00
 2001 303    65     0     0    38.6   82.7   16608   60.5   22.2   0.6   0.9   2.3   2.7   3.6   4.8   5.1   5.0   0.0   0.0   0.1   0.8   1.6   1.1   1.4  2.18  1.22  0.81  0.00  0.00   38.09   36.78    4.57    0.00    0.00
 2001 304    66     0     0    39.9   80.3   16607   58.3   22.0   0.7   0.9   2.1   2.6   3.5   4.6   4.9   4.8   0.0   0.0   0.1   0.8   1.6   1.1   1.4  2.16  1.21  0.81  0.00  0.00   38.72   37.06    4.70    0.00    0.00
 2001 305    67     0     0    40.5   78.4   16607   57.0   21.5   0.9   1.0   1.9   2.5   3.4   4.5   4.8   4.7   0.0   0.0   0.1   0.7   1.5   1.1   1.4  2.13  1.19  0.80  0.00  0.00   39.35   37.55    4.75    0.00    0.00
 2001 306    68     0     0    40.8   76.7   16606   55.9   20.7   1.0   1.0   1.9   2.4   3.3   4.4   4.7   4.7   0.0   0.0   0.1   0.6   1.3   1.1   1.3  2.10  1.17  0.79  0.00  0.00   39.99   38.21    4.78    0.00    0.00
 2001 307    69     0     0    40.8   75.3   16605   55.2   20.1   1.1   1.1   1.9   2.4   3.2   4.3   4.7   4.6   0.0   0.0   0.1   0.5   1.2   1.1   1.3  2.07  1.16  0.77  0.00  0.00   40.62   38.82    4.79    0.00    0.00
 2001 308    70     0     0    40.8   73.7   16605   54.4   19.3   1.2   1.1   1.8   2.4   3.2   4.2   4.6   4.6   0.0   0.0   0.1   0.5   1.1   1.0   1.2  2.02  1.13  0.76  0.00  0.00   41.25   39.58    4.80    0.00    0.00
 2001 309    71     0     0    40.8   71.8   16604   53.4   18.4   1.3   1.2   1.7   2.3   3.1   4.1   4.5   4.6   0.0   0.0   0.1   0.5   1.0   0.9   1.1  1.95  1.10  0.75  0.00  0.00   41.90   40.37    4.80    0.00    0.00
 2001 310    72     0     0    40.9   69.3   16603   52.0   17.4   0.6   1.1   1.6   2.2   3.1   4.0   4.4   4.5   0.0   0.0   0.1   0.5   0.9   0.8   1.0  1.86  1.07  0.73  0.00  0.00   42.56   41.16    4.80    0.00    0.00
 2001 311    73     0     0    41.0   67.9   16603   50.6   17.3   0.5   1.0   1.5   2.2   3.0   3.9   4.4   4.5   0.0   0.0   0.1   0.6   0.9   0.8   1.0  1.80  1.03  0.71  0.00  0.00   43.23   41.38    4.81    0.00    0.00
 2001 312    74     0     0    42.2   66.1   16602   48.6   17.4   0.5   1.0   1.5   2.1   2.9   3.7   4.2   4.4   0.0   0.0   0.2   0.7   1.0   0.9   1.0  1.77  1.01  0.70  0.00  0.00   43.89   41.54    4.82    0.00    0.00
 2001 313    75     0     0    42.4   63.9   16601   47.0   16.9   0.5   0.7   1.2   1.8   2.7   3.6   4.2   4.4   0.0   0.0   0.1   0.7   1.0   0.9   1.0  1.71  0.98  0.68  0.00  0.00   44.55   41.86    4.82    0.00    0.00
 2001 314    76     0     0    42.8   62.0   16601   45.3   16.7   0.5   0.6   1.1   1.7   2.5   3.5   4.1   4.4   0.0   0.0   0.1   0.6   1.0   0.9   1.0  1.69  0.96  0.66  0.00  0.00   45.20   42.07    4.85    0.00    0.00
 2001 315    77     0     0    44.6   59.0   16600   42.4   16.6   0.5   0.5   1.0   1.6   2.4   3.3   3.9   4.2   0.0   0.0   0.2   0.6   1.0   0.9   1.0  1.67  0.95  0.65  0.00  0.00   45.82   42.20    5.00    0.00    0.00
 2001 316    78     0     0    45.6   54.6   16600   39.1   15.4   0.6   0.5   0.7   1.4   2.1   3.0   3.6   4.0   0.0   0.0   0.1   0.6   0.8   0.8   0.9  1.59  0.91  0.62  0.00  0.00   46.46   42.49    5.08    0.00    0.00
 2001 317    79     0     0    46.0   50.0   16599   36.1   13.9   0.7   0.6   0.4   1.2   1.9   2.8   3.4   3.8   0.0   0.0   0.1   0.5   0.5   0.7   0.9  1.47  0.86  0.60  0.00  0.00   47.14   43.00    5.11    0.00    0.00
 2001 318    80     0     0    46.2   47.8   16598   34.4   13.3   0.8   0.6   0.5   1.1   1.7   2.6   3.2   3.7   0.0   0.0   0.1   0.5   0.6   0.7   0.8  1.39  0.83  0.58  0.00  0.00   47.84   43.44    5.12    0.00    0.00
 2001 319    81     0     0    46.2   44.3   16598   32.0   12.2   0.8   0.6   0.6   1.0   1.5   2.3   3.0   3.6   0.0   0.0   0.1   0.5   0.6   0.6   0.7  1.26  0.77  0.56  0.00  0.00   48.55   43.95    5.13    0.00    0.00
 2001 320    82     0     0    46.2   40.0   16597   29.0   11.0   0.9   0.5   0.4   0.9   1.3   2.1   2.8   3.4   0.0   0.0   0.1   0.5   0.6   0.5   0.6  1.10  0.70  0.53  0.00  0.00   49.25   44.55    5.13    0.00    0.00
 2001 321    83     0     0    46.2   36.6   16596   26.6   10.0   0.9   0.5   0.5   0.7   1.1   1.8   2.5   3.3   0.0   0.0   0.1   0.5   0.6   0.5   0.5  0.97  0.62  0.50  0.00  0.00   49.93   45.11    5.13    0.00    0.00
 2001 322    84     0     0    46.2   32.5   16596   23.5    9.1   0.9   0.6   0.5   0.6   0.9   1.5   2.2   3.1   0.0   0.0   0.1   0.5   0.6   0.5   0.5  0.79  0.52  0.49  0.00  0.00   50.58   45.67    5.13    0.00    0.00
 2001 323    85     0     0    46.2   28.5   16595   20.2    8.4   0.9   0.5   0.3   0.5   0.7   1.2   1.9   2.9   0.0   0.0   0.1   0.5   0.6   0.5   0.5  0.65  0.49  0.48  0.00  0.00   51.25   46.23    5.13    0.00    0.00
 2001 324    86     0     0    46.2   25.8   16594   18.0    7.8   0.9   0.5   0.4   0.5   0.6   1.0   1.6   2.7   0.0   0.0   0.1   0.4   0.6   0.5   0.5  0.53  0.49  0.46  0.00  0.00   51.94   46.80    5.13    0.00    0.00
 2001 325    87     0     0    46.2   23.8   16594   16.0    7.7   1.0   0.6   0.5   0.4   0.5   0.8   1.4   2.5   0.0   0.0   0.1   0.4   0.6   0.5   0.5  0.52  0.49  0.45  0.00  0.00   52.64   47.39    5.13    0.00    0.00
 2001 326    88     0     0    46.2   22.3   16593   14.7    7.7   1.0   0.6   0.5   0.5   0.5   0.6   1.2   2.3   0.0   0.0   0.1   0.4   0.6   0.5   0.5  0.52  0.48  0.44  0.00  0.00   53.36   48.00    5.13    0.00    0.00
 2001 327    89     0     0    46.2   20.8   16592   13.2    7.6   1.1   0.6   0.4   0.5   0.5   0.5   1.0   2.1   0.0   0.0   0.1   0.4   0.6   0.5   0.5  0.52  0.48  0.43  0.00  0.00   54.08   48.62    5.13    0.00    0.00
 2001 328    90     0     0    46.2   19.8   16591   12.3    7.5   0.3   0.4   0.6   0.4   0.5   0.6   0.9   1.9   0.0   0.0   0.1   0.4   0.5   0.5   0.5  0.52  0.47  0.42  0.00  0.00   54.81   49.25    5.13    0.00    0.00
 2001 329    91     0     0    46.8   18.7   16591   10.6    8.0   0.3   0.4   0.4   0.4   0.5   0.5   0.7   1.6   0.0   0.0   0.2   0.5   0.6   0.5   0.5  0.52  0.48  0.42  0.00  0.00   55.58   49.34    5.13    0.00    0.00
 2001 330    92     0     0    48.1   16.7   16590    8.7    8.0   0.4   0.3   0.4   0.4   0.4   0.4   0.5   1.2   0.0   0.0   0.1   0.6   0.6   0.5   0.5  0.52  0.49  0.42  0.00  0.00   56.32   49.61    5.13    0.00    0.00
 2001 331    93     0     0    48.5   16.3   16589    8.2    8.1   0.4   0.3   0.4   0.4   0.4   0.4   0.5   1.0   0.0   0.0   0.2   0.6   0.6   0.5   0.5  0.52  0.50  0.42  0.00  0.00   57.00   49.70    5.13    0.00    0.00
 2001 332    94     0     0    48.8   16.1   16589    8.1    8.1   0.6   0.4   0.4   0.4   0.4   0.4   0.5   0.9   0.0   0.0   0.1   0.6   0.6   0.5   0.5  0.52  0.50  0.42  0.00  0.00   57.68   49.94    5.13    0.00    0.00
 2001 333    95     0     0    48.8   15.9   16588    8.0    7.9   0.3   0.6   0.5   0.4   0.4   0.4   0.5   0.8   0.0   0.0   0.1   0.5   0.6   0.5   0.5  0.52  0.51  0.42  0.00  0.00   58.31   50.31    5.13    0.00    0.00
 2001 334    96     0     0    48.8   15.8   16587    7.7    8.1   0.4   0.3   0.5   0.4   0.5   0.4   0.5   0.8   0.0   0.0   0.1   0.6   0.6   0.5   0.5  0.52  0.52  0.42  0.00  0.00   58.96   50.48    5.14    0.00    0.00
 2001 335    97     0     0    48.9   15.7   16587    7.6    8.0   0.5   0.3   0.5   0.4   0.5   0.4   0.5   0.7   0.0   0.0   0.1   0.6   0.6   0.5   0.5  0.52  0.51  0.42  0.00  0.00   59.60   50.67    5.14    0.00    0.00
 2001 336    98     0     0    48.9   15.7   16586    7.9    7.9   0.6   0.5   0.6   0.4   0.5   0.4   0.5   0.6   0.0   0.0   0.1   0.5   0.6   0.5   0.5  0.52  0.51  0.42  0.00  0.00   60.27   51.07    5.14    0.00    0.00
 2001 337    99     0     0    48.9   15.2   16586    7.4    7.8   0.4   0.6   0.3   0.5   0.5   0.4   0.5   0.5   0.0   0.0   0.1   0.5   0.6   0.5   0.5  0.51  0.51  0.42  0.00  0.00   60.93   51.55    5.14    0.00    0.00
 2001 338   100     0     0    48.9   15.1   16585    7.3    7.8   0.5   0.4   0.4   0.5   0.5   0.4   0.5   0.5   0.0   0.0   0.1   0.5   0.6   0.5   0.5  0.51  0.51  0.42  0.00  0.00   61.58   52.00    5.14    0.00    0.00
 2001 339   101     0     0    48.9   14.9   16584    7.1    7.8   0.4   0.5   0.4   0.5   0.3   0.4   0.5   0.5   0.0   0.0   0.1   0.5   0.6   0.5   0.5  0.51  0.50  0.42  0.00  0.00   62.21   52.47    5.14    0.00    0.00
 2001 340   102     0     0    48.9   14.5   16584    6.7    7.8   0.5   0.6   0.5   0.3   0.3   0.4   0.4   0.5   0.0   0.0   0.1   0.5   0.6   0.5   0.5  0.51  0.49  0.42  0.00  0.00   62.87   52.97    5.14    0.00    0.00
 2001 341   103     0     0    48.9   14.5   16583    6.7    7.7   0.4   0.4   0.5   0.3   0.4   0.4   0.4   0.5   0.0   0.0   0.1   0.5   0.6   0.5   0.5  0.51  0.49  0.41  0.00  0.00   63.53   53.46    5.14    0.00    0.00
 2001 342   104     0     0    48.9   14.5   16582    6.8    7.7   0.6   0.5   0.3   0.4   0.4   0.5   0.4   0.5   0.0   0.0   0.1   0.5   0.6   0.5   0.5  0.51  0.48  0.41  0.00  0.00   64.19   53.98    5.14    0.00    0.00
 2001 343   105     0     0    48.9   14.9   16582    7.2    7.6   0.5   0.6   0.4   0.4   0.4   0.5   0.4   0.5   0.0   0.0   0.1   0.5   0.6   0.5   0.5  0.51  0.48  0.40  0.00  0.00   64.84   54.50    5.14    0.00    0.00
 2001 344   106     0     0    48.9   14.9   16581    7.3    7.6   0.5   0.4   0.4   0.4   0.4   0.5   0.4   0.5   0.0   0.0   0.1   0.5   0.6   0.5   0.5  0.51  0.48  0.39  0.00  0.00   65.47   55.01    5.14    0.00    0.00
 2001 345   107     0     0    48.9   15.1   16581    7.6    7.5   0.6   0.5   0.5   0.5   0.5   0.5   0.5   0.5   0.0   0.0   0.1   0.5   0.6   0.5   0.5  0.51  0.47  0.38  0.00  0.00   66.10   55.53    5.14    0.00    0.00
 2001 346   108     0     0    48.9   15.5   16580    8.0    7.5   0.6   0.6   0.5   0.5   0.5   0.5   0.5   0.5   0.0   0.0   0.1   0.4   0.5   0.5   0.5  0.51  0.47  0.37  0.00  0.00   66.72   56.03    5.14    0.00    0.00
 2001 347   109     0     0    48.9   14.8   16579    7.4    7.4   0.6   0.5   0.3   0.4   0.5   0.5   0.5   0.5   0.0   0.0   0.1   0.4   0.5   0.5   0.5  0.51  0.47  0.36  0.00  0.00   67.33   56.53    5.14    0.00    0.00
 2001 348   110     0     0    48.9   14.9   16579    7.5    7.4   0.4   0.7   0.4   0.4   0.4   0.5   0.5   0.5   0.0   0.0   0.1   0.4   0.5   0.5   0.5  0.52  0.47  0.36  0.00  0.00   67.95   57.06    5.14    0.00    0.00
 2001 349   111     0     0    48.9   15.2   16578    7.6    7.6   0.5   0.4   0.5   0.4   0.4   0.5   0.5   0.5   0.0   0.0   0.1   0.5   0.6   0.5   0.5  0.52  0.46  0.35  0.00  0.00   68.71   57.48    5.14    0.00    0.00
 2001 350   112     0     0    48.9   15.4   16577    7.9    7.5   0.7   0.5   0.6   0.5   0.4   0.5   0.4   0.5   0.0   0.0   0.1   0.5   0.6   0.5   0.5  0.52  0.46  0.34  0.00  0.00   69.48   58.11    5.14    0.00    0.00
 2001 351   113     0     0    48.9   14.7   16577    7.2    7.5   0.4   0.4   0.3   0.5   0.5   0.5   0.4   0.5   0.0   0.0   0.1   0.5   0.6   0.5   0.5  0.52  0.46  0.33  0.00  0.00   70.25   58.71    5.14    0.00    0.00
 2001 352   114     0     0    48.9   15.0   16576    7.5    7.4   0.6   0.6   0.4   0.4   0.5   0.5   0.4   0.5   0.0   0.0   0.1   0.5   0.6   0.5   0.5  0.52  0.45  0.33  0.00  0.00   71.00   59.32    5.14    0.00    0.00
 2001 353   115     0     0    48.9   14.5   16575    7.1    7.4   0.6   0.4   0.5   0.4   0.5   0.4   0.4   0.5   0.0   0.0   0.1   0.5   0.6   0.5   0.5  0.52  0.45  0.32  0.00  0.00   71.71   59.92    5.14    0.00    0.00
 2001 354   116     0     0    48.9   14.7   16575    7.4    7.3   0.6   0.6   0.5   0.5   0.4   0.4   0.5   0.5   0.0   0.0   0.1   0.4   0.6   0.5   0.5  0.52  0.45  0.32  0.00  0.00   72.41   60.51    5.14    0.00    0.00
 2001 355   117     0     0    48.9   14.4   16574    7.1    7.2   0.3   0.4   0.4   0.5   0.4   0.4   0.5   0.5   0.0   0.0   0.1   0.4   0.5   0.5   0.5  0.52  0.45  0.31  0.00  0.00   73.11   61.11    5.14    0.00    0.00
 2001 356   118     0     0    48.9   14.7   16573    7.2    7.5   0.4   0.4   0.5   0.4   0.5   0.4   0.5   0.5   0.0   0.0   0.2   0.5   0.6   0.5   0.5  0.52  0.44  0.30  0.00  0.00   73.89   61.49    5.14    0.00    0.00
 2001 357   119     0     0    48.9   15.2   16572    7.8    7.5   0.7   0.5   0.6   0.5   0.5   0.4   0.5   0.5   0.0   0.0   0.1   0.6   0.6   0.5   0.5  0.52  0.44  0.30  0.00  0.00   74.65   62.04    5.14    0.00    0.00
 2001 358   120     0     0    48.9   14.5   16572    7.2    7.3   0.4   0.7   0.3   0.5   0.4   0.4   0.5   0.5   0.0   0.0   0.1   0.5   0.6   0.5   0.5  0.52  0.44  0.29  0.00  0.00   75.39   62.65    5.14    0.00    0.00
 2001 359   121     0     0    48.9   14.0   16571    6.8    7.3   0.5   0.4   0.4   0.4   0.4   0.4   0.4   0.5   0.0   0.0   0.1   0.5   0.6   0.5   0.5  0.52  0.44  0.29  0.00  0.00   76.12   63.23    5.14    0.00    0.00
 2001 360   122     0     0    48.9   14.5   16570    7.2    7.2   0.5   0.5   0.4   0.4   0.5   0.4   0.4   0.5   0.0   0.0   0.1   0.5   0.6   0.5   0.5  0.52  0.44  0.28  0.00  0.00   76.83   63.78    5.14    0.00    0.00
 2001 361   123     0     0    48.9   14.7   16570    7.5    7.2   0.6   0.4   0.5   0.5   0.5   0.4   0.4   0.5   0.0   0.0   0.1   0.4   0.6   0.5   0.5  0.52  0.43  0.28  0.00  0.00   77.55   64.38    5.14    0.00    0.00
 2001 362   124     0     0    48.9   14.7   16569    7.6    7.1   0.7   0.6   0.3   0.5   0.5   0.4   0.5   0.5   0.0   0.0   0.1   0.4   0.6   0.5   0.5  0.52  0.43  0.27  0.00  0.00   78.26   65.01    5.14    0.00    0.00
 2001 363   125     0     0    48.9   14.5   16568    7.5    7.0   0.4   0.6   0.5   0.4   0.5   0.4   0.5   0.5   0.0   0.0   0.1   0.4   0.5   0.5   0.5  0.52  0.43  0.27  0.00  0.00   78.96   65.64    5.14    0.00    0.00
 2001 364   126     0     0    48.9   14.9   16567    7.6    7.3   0.4   0.2   0.6   0.5   0.5   0.4   0.5   0.5   0.0   0.0   0.1   0.5   0.6   0.5   0.5  0.52  0.43  0.26  0.00  0.00   79.80   66.12    5.14    0.00    0.00
 2001 365   127     0     0    48.9   14.8   16567    7.5    7.3   0.6   0.4   0.3   0.6   0.5   0.5   0.5   0.5   0.0   0.0   0.1   0.5   0.6   0.5   0.5  0.52  0.43  0.26  0.00  0.00   80.67   66.77    5.14    0.00    0.00
 2002 001   128     0     0    48.9   14.5   16566    7.4    7.1   0.4   0.6   0.4   0.4   0.5   0.5   0.5   0.5   0.0   0.0   0.1   0.5   0.6   0.5   0.5  0.52  0.42  0.26  0.00  0.00   81.55   67.48    5.14    0.00    0.00
 2002 002   129     0     0    48.9   14.6   16565    7.4    7.1   0.6   0.4   0.4   0.5   0.5   0.5   0.4   0.5   0.0   0.0   0.1   0.5   0.6   0.5   0.5  0.52  0.42  0.25  0.00  0.00   82.40   68.18    5.14    0.00    0.00
 2002 003   130     0     0    48.9   15.1   16564    8.0    7.1   0.6   0.6   0.5   0.5   0.5   0.5   0.5   0.5   0.0   0.0   0.1   0.4   0.6   0.5   0.5  0.51  0.42  0.25  0.00  0.00   83.22   68.83    5.14    0.00    0.00
 2002 004   131     0     0    48.9   14.6   16563    7.5    7.1   0.6   0.4   0.3   0.6   0.5   0.5   0.5   0.5   0.0   0.0   0.1   0.4   0.6   0.5   0.5  0.51  0.42  0.24  0.00  0.00   84.01   69.48    5.14    0.00    0.00
 2002 005   132     0     0    48.9   14.8   16563    7.8    7.0   0.5   0.7   0.4   0.4   0.5   0.5   0.5   0.5   0.0   0.0   0.1   0.4   0.6   0.5   0.5  0.51  0.42  0.24  0.00  0.00   84.75   70.09    5.14    0.00    0.00
 2002 006   133     0     0    48.9   14.8   16562    7.7    7.1   0.4   0.4   0.5   0.5   0.5   0.5   0.5   0.5   0.0   0.0   0.2   0.4   0.6   0.5   0.5  0.51  0.41  0.24  0.00  0.00   85.50   70.60    5.14    0.00    0.00
 2002 007   134     0     0    48.9   14.7   16561    7.6    7.1   0.7   0.4   0.3   0.5   0.4   0.5   0.5   0.5   0.0   0.0   0.1   0.6   0.6   0.5   0.5  0.51  0.41  0.23  0.00  0.00   86.24   71.12    5.14    0.00    0.00
 2002 008   135     0     0    48.9   14.7   16561    7.7    7.1   0.4   0.6   0.4   0.4   0.5   0.5   0.5   0.5   0.0   0.0   0.1   0.5   0.6   0.5   0.5  0.51  0.41  0.23  0.00  0.00   86.95   71.68    5.14    0.00    0.00
 2002 009   136     0     0    48.9   14.7   16560    7.7    7.0   0.5   0.4   0.5   0.5   0.5   0.5   0.5   0.5   0.0   0.0   0.1   0.5   0.6   0.5   0.5  0.51  0.41  0.23  0.00  0.00   87.66   72.25    5.14    0.00    0.00
 2002 010   137     0     0    48.9   14.5   16559    7.5    7.0   0.5   0.5   0.5   0.5   0.4   0.4   0.5   0.5   0.0   0.0   0.1   0.5   0.6   0.5   0.5  0.51  0.41  0.23  0.00  0.00   88.35   72.80    5.14    0.00    0.00
 2002 011   138     0     0    48.9   14.2   16559    7.3    6.9   0.6   0.4   0.3   0.5   0.5   0.4   0.5   0.5   0.0   0.0   0.1   0.5   0.6   0.5   0.5  0.51  0.41  0.22  0.00  0.00   89.03   73.38    5.14    0.00    0.00
 2002 012   139     0     0    48.9   14.5   16558    7.6    6.9   0.7   0.6   0.4   0.5   0.5   0.4   0.5   0.5   0.0   0.0   0.1   0.4   0.5   0.5   0.5  0.51  0.40  0.22  0.00  0.00   89.70   73.97    5.14    0.00    0.00
 2002 013   140     0     0    48.9   14.6   16557    7.8    6.8   0.3   0.5   0.6   0.5   0.5   0.4   0.5   0.5   0.0   0.0   0.1   0.4   0.5   0.5   0.5  0.51  0.40  0.22  0.00  0.00   90.36   74.59    5.14    0.00    0.00
 2002 014   141     0     0    48.9   14.4   16557    7.3    7.2   0.5   0.5   0.3   0.4   0.5   0.5   0.5   0.5   0.0   0.0   0.1   0.5   0.6   0.5   0.5  0.51  0.40  0.21  0.00  0.00   91.21   74.95    5.14    0.00    0.00
 2002 015   142     0     0    48.9   14.8   16556    7.7    7.1   0.5   0.7   0.3   0.5   0.5   0.5   0.5   0.5   0.0   0.0   0.3   0.5   0.6   0.5   0.5  0.51  0.40  0.21  0.00  0.00   92.04   75.47    5.14    0.00    0.00
 2002 016   143     0     0    48.9   14.6   16555    7.7    6.9   0.9   0.4   0.4   0.5   0.5   0.5   0.5   0.5   0.0   0.0   0.0   0.5   0.6   0.5   0.5  0.51  0.40  0.21  0.00  0.00   92.85   76.26    5.14    0.00    0.00
 2002 017   144     0     0    48.9   14.5   16554    7.6    6.9   0.5   0.6   0.4   0.4   0.5   0.5   0.5   0.5   0.0   0.0   0.2   0.5   0.6   0.5   0.5  0.51  0.39  0.21  0.00  0.00   93.62   76.79    5.14    0.00    0.00
 2002 018   145     0     0    48.9   14.7   16554    7.9    6.9   0.7   0.4   0.5   0.4   0.5   0.5   0.5   0.5   0.0   0.0   0.1   0.5   0.6   0.5   0.5  0.51  0.39  0.20  0.00  0.00   94.34   77.39    5.14    0.00    0.00
 2002 019   146     0     0    48.9   15.0   16553    8.1    6.9   0.6   0.5   0.6   0.5   0.5   0.5   0.5   0.5   0.0   0.0   0.1   0.5   0.6   0.5   0.5  0.51  0.39  0.20  0.00  0.00   95.01   77.90    5.14    0.00    0.00
 2002 020   147     0     0    48.9   14.4   16552    7.6    6.8   0.7   0.4   0.3   0.5   0.5   0.5   0.5   0.5   0.0   0.0   0.1   0.5   0.6   0.5   0.5  0.51  0.39  0.20  0.00  0.00   95.68   78.45    5.14    0.00    0.00
 2002 021   148     0     0    48.9   14.4   16552    7.7    6.8   0.6   0.5   0.4   0.4   0.5   0.5   0.5   0.5   0.0   0.0   0.1   0.4   0.6   0.5   0.5  0.51  0.39  0.20  0.00  0.00   96.36   79.03    5.14    0.00    0.00
 2002 022   149     0     0    48.9   14.6   16551    7.9    6.7   0.7   0.5   0.5   0.5   0.5   0.5   0.5   0.5   0.0   0.0   0.1   0.4   0.5   0.5   0.5  0.51  0.39  0.20  0.00  0.00   97.05   79.64    5.14    0.00    0.00
 2002 023   150     0     0    48.9   15.1   16551    8.5    6.6   0.4   0.7   0.6   0.5   0.5   0.5   0.5   0.5   0.0   0.0   0.1   0.4   0.5   0.5   0.5  0.51  0.38  0.19  0.00  0.00   97.73   80.25    5.14    0.00    0.00
 2002 024   151     0     0    48.9   14.2   16550    7.4    6.9   0.3   0.2   0.3   0.5   0.6   0.5   0.5   0.5   0.0   0.0   0.1   0.5   0.6   0.5   0.5  0.51  0.38  0.19  0.00  0.00   98.58   80.74    5.14    0.00    0.00
 2002 025   152     0     0    48.9   14.5   16549    7.1    7.3   0.4   0.2   0.3   0.5   0.5   0.5   0.5   0.5   0.0   0.0   0.3   0.6   0.6   0.5   0.5  0.51  0.38  0.19  0.00  0.00   99.45   80.95    5.14    0.00    0.00
 2002 026   153     0     0    48.9   14.8   16548    7.8    7.0   0.8   0.5   0.4   0.5   0.5   0.5   0.5   0.5   0.0   0.0   0.0   0.4   0.6   0.5   0.5  0.52  0.38  0.19  0.00  0.00  100.34   81.63    5.14    0.00    0.00
 2002 027   154     0     0    48.9   15.2   16547    8.2    7.0   0.6   0.6   0.5   0.5   0.5   0.5   0.5   0.5   0.0   0.0   0.2   0.4   0.6   0.5   0.5  0.52  0.38  0.19  0.00  0.00  101.21   82.09    5.14    0.00    0.00
 2002 028   155     0     0    48.9   15.3   16546    8.4    7.0   0.8   0.6   0.5   0.5   0.5   0.5   0.5   0.5   0.0   0.0   0.1   0.4   0.6   0.5   0.5  0.52  0.38  0.18  0.00  0.00  102.06   82.68    5.14    0.00    0.00
 2002 029   156     0     0    48.9   15.2   16546    8.3    6.9   0.8   0.6   0.4   0.6   0.5   0.5   0.5   0.5   0.0   0.0   0.1   0.5   0.6   0.5   0.5  0.52  0.37  0.18  0.00  0.00  102.89   83.28    5.14    0.00    0.00
 2002 030   157     0     0    49.0   15.4   16545    8.5    6.9   0.3   0.4   0.5   0.5   0.5   0.5   0.6   0.6   0.0   0.0   0.1   0.5   0.6   0.5   0.5  0.52  0.37  0.18  0.00  0.00  103.73   83.94    5.14    0.00    0.00
 2002 031   158     0     0    49.2   15.8   16544    8.3    7.5   0.5   0.5   0.5   0.5   0.5   0.5   0.6   0.6   0.0   0.0   0.1   0.6   0.7   0.6   0.5  0.53  0.38  0.18  0.00  0.00  104.59   84.10    5.14    0.00    0.00
 2002 032   159     0     0    49.3   16.5   16543    8.6    7.9   0.7   0.7   0.5   0.5   0.5   0.5   0.6   0.6   0.0   0.0   0.1   0.5   0.8   0.6   0.6  0.56  0.39  0.19  0.00  0.00  105.50   84.57    5.14    0.00    0.00
 2002 033   160     0     0    49.4   17.4   16542    9.2    8.2   0.9   0.9   0.6   0.5   0.5   0.5   0.6   0.6   0.0   0.0   0.1   0.5   0.9   0.6   0.6  0.58  0.40  0.19  0.00  0.00  106.43   85.16    5.14    0.00    0.00
 2002 034   161     0     0    49.5   18.3   16542    9.7    8.6   1.1   1.1   0.7   0.5   0.5   0.5   0.6   0.6   0.0   0.0   0.1   0.5   0.9   0.7   0.6  0.60  0.41  0.19  0.00  0.00  107.34   85.77    5.14    0.00    0.00
 2002 035   162     0     0    49.5   19.1   16541   10.3    8.9   1.3   1.2   0.9   0.5   0.5   0.5   0.6   0.6   0.0   0.0   0.1   0.5   0.9   0.7   0.7  0.62  0.42  0.19  0.00  0.00  108.21   86.32    5.15    0.00    0.00
 2002 036   163     0     0    49.5   20.0   16540   10.9    9.1   1.5   1.4   1.0   0.6   0.5   0.5   0.6   0.6   0.0   0.0   0.1   0.5   1.0   0.7   0.7  0.64  0.43  0.20  0.00  0.00  109.07   86.95    5.15    0.00    0.00

*DSSAT Cropping System Model Ver. 4.0.2.000               Aug 29, 2016; 09:16:37

*RUN   3        : UYSB                    
 MODEL          : CRGRO040 - Soybean         
 EXPERIMENT     : UYSB0405 SB    late to create DSS                             
 TREATMENT  1   : UYSB                    

@YEAR DOY   DAS  NAPC  NI#M    NLCC   NIAD    NOAD   NITD   NHTD  NI1D  NI2D  NI3D  NI4D  NI5D  NI6D  NI7D  NI8D  NI9D  NI10  NH1D  NH2D  NH3D  NH4D  NH5D  NH6D  NH7D  NH8D  NH9D  NH10    NMNC    NITC    NDNC    NIMC    AMLC
 2002 238     0     0     0     0.0   99.6   16645   77.6   22.0  16.7  15.6  15.2   8.6   4.6   0.0   0.1   0.1   0.0   0.0   0.0   1.1   1.4   1.4   1.4  1.50  1.46  1.45  0.00  0.00    0.87    2.81    0.00    0.00    0.00
 2002 239     1     0     0     0.0  100.5   16644   79.3   21.2  16.7  16.0  15.5   8.8   4.7   0.1   0.1   0.1   0.0   0.0   0.2   0.8   1.4   1.3   1.4  1.51  1.42  1.40  0.00  0.00    1.73    4.46    0.00    0.00    0.00
 2002 240     2     0     0     0.0  101.3   16643   80.9   20.5   8.0  20.5  15.9   8.9   4.8   0.1   0.2   0.2   0.0   0.0   0.0   0.7   1.3   1.2   1.3  1.51  1.38  1.35  0.00  0.00    2.58    6.07    0.00    0.00    0.00
 2002 241     3     0     0     0.0  102.2   16643   82.0   20.2   8.0  20.1  16.4   9.0   4.9   0.1   0.2   0.2   0.0   0.0   0.1   0.8   1.3   1.2   1.2  1.51  1.35  1.31  0.00  0.00    3.41    7.20    0.00    0.00    0.00
 2002 242     4     0     0     0.0  102.9   16642   83.3   19.6   8.1  20.1  16.8   9.1   5.0   0.1   0.3   0.3   0.0   0.0   0.1   0.7   1.3   1.1   1.2  1.52  1.31  1.27  0.00  0.00    4.17    8.50    0.00    0.00    0.00
 2002 243     5     0     0     0.0  103.6   16641   84.4   19.2   8.2  20.1  17.1   9.2   5.0   0.1   0.3   0.3   0.0   0.0   0.1   0.6   1.2   1.1   1.2  1.52  1.28  1.23  0.00  0.00    4.85    9.56    0.00    0.00    0.00
 2002 244     6     0     0     0.0  104.2   16641   85.3   18.9   8.3  20.0  17.3   9.3   5.1   0.2   0.3   0.4   0.0   0.0   0.1   0.6   1.2   1.0   1.1  1.52  1.25  1.19  0.00  0.00    5.43   10.46    0.00    0.00    0.00
 2002 245     7     0     0     0.0  104.7   16640   86.0   18.6   8.4  20.0  17.5   9.4   5.1   0.2   0.4   0.4   0.0   0.0   0.1   0.6   1.2   1.0   1.1  1.52  1.23  1.15  0.00  0.00    5.93   11.23    0.00    0.00    0.00
 2002 246     8     0     0     0.0  105.1   16640   86.7   18.4   8.4  20.0  17.6   9.4   5.2   0.2   0.4   0.4   0.0   0.0   0.1   0.6   1.2   1.0   1.1  1.53  1.20  1.12  0.00  0.00    6.34   11.91    0.00    0.00    0.00
 2002 247     9     0     0     0.0  105.5   16639   87.4   18.1   4.1  17.7  20.7   9.5   5.2   0.2   0.4   0.5   0.0   0.0   0.1   0.6   1.2   1.0   1.0  1.53  1.18  1.09  0.00  0.00    6.75   12.57    0.00    0.00    0.00
 2002 248    10     0     0     0.0  105.9   16639   88.0   18.0   4.2  17.2  21.0   9.6   5.2   0.2   0.5   0.5   0.0   0.0   0.1   0.6   1.2   1.0   1.0  1.53  1.15  1.06  0.00  0.00    7.17   13.16    0.00    0.00    0.00
 2002 249    11     0     0     0.0  106.4   16638   88.7   17.7   3.8  17.2  21.2   9.8   5.3   0.2   0.5   0.5   0.0   0.0   0.1   0.6   1.2   0.9   1.0  1.53  1.13  1.03  0.00  0.00    7.64   13.86    0.00    0.00    0.00
 2002 250    12     0     0     0.0  106.9   16638   89.3   17.6   3.7  17.0  21.4   9.9   5.3   0.2   0.5   0.6   0.0   0.0   0.2   0.7   1.2   0.9   1.0  1.54  1.11  1.00  0.00  0.00    8.14   14.46    0.00    0.00    0.00
[...]
 2014 307    69     0     0    24.5   92.7   16605   72.5   20.3   0.4   1.1   2.8   3.8   5.3   5.9   5.7   4.9   0.0   0.0   0.2   0.8   1.5   1.0   1.3  1.98  1.07  0.69  0.00  0.00   41.48   40.85    4.71    0.00    0.00
 2014 308    70     0     0    26.7   89.7   16604   69.4   20.3   0.5   1.0   2.6   3.6   5.0   5.7   5.5   4.8   0.0   0.0   0.1   0.9   1.5   1.1   1.3  1.97  1.07  0.69  0.00  0.00   42.05   41.09    4.98    0.00    0.00
 2014 309    71     0     0    28.0   87.7   16603   67.4   20.2   0.6   1.0   2.4   3.4   4.8   5.5   5.4   4.7   0.0   0.0   0.1   0.9   1.5   1.1   1.3  1.97  1.07  0.68  0.00  0.00   42.62   41.33    5.13    0.00    0.00
 2014 310    72     0     0    28.6   84.8   16603   65.3   19.5   0.7   1.0   2.2   3.3   4.6   5.3   5.2   4.6   0.0   0.0   0.1   0.7   1.4   1.0   1.3  1.93  1.05  0.67  0.00  0.00   43.19   41.77    5.21    0.00    0.00
 2014 311    73     0     0    28.9   81.6   16602   63.1   18.5   0.8   1.0   2.0   3.1   4.4   5.1   5.1   4.6   0.0   0.0   0.1   0.6   1.2   1.0   1.2  1.88  1.02  0.66  0.00  0.00   43.79   42.36    5.23    0.00    0.00
 2014 312    74     0     0    28.9   78.8   16602   61.3   17.5   0.9   1.1   1.8   3.0   4.2   5.0   5.0   4.5   0.0   0.0   0.1   0.5   1.0   0.9   1.2  1.82  0.99  0.65  0.00  0.00   44.44   43.03    5.24    0.00    0.00
 2014 313    75     0     0    28.9   75.9   16601   59.4   16.5   1.1   1.1   1.7   2.9   4.1   4.8   4.8   4.4   0.0   0.0   0.1   0.5   0.9   0.8   1.1  1.73  0.96  0.63  0.00  0.00   45.13   43.83    5.24    0.00    0.00
 2014 314    76     0     0    28.9   72.3   16600   57.1   15.3   1.2   1.1   1.5   2.7   3.9   4.6   4.7   4.4   0.0   0.0   0.1   0.5   0.7   0.7   0.9  1.63  0.90  0.62  0.00  0.00   45.87   44.70    5.24    0.00    0.00
 2014 315    77     0     0    28.9   68.6   16599   54.5   14.1   1.3   1.1   1.3   2.6   3.7   4.3   4.5   4.3   0.0   0.0   0.1   0.5   0.7   0.6   0.8  1.53  0.84  0.60  0.00  0.00   46.65   45.56    5.24    0.00    0.00
 2014 316    78     0     0    28.9   64.7   16599   51.7   13.0   1.3   1.1   1.2   2.4   3.4   4.0   4.3   4.2   0.0   0.0   0.1   0.4   0.6   0.6   0.7  1.42  0.78  0.56  0.00  0.00   47.44   46.39    5.24    0.00    0.00
 2014 317    79     0     0    28.9   61.9   16598   49.7   12.2   1.4   1.2   1.1   2.3   3.2   3.8   4.2   4.1   0.0   0.0   0.1   0.4   0.6   0.5   0.7  1.34  0.73  0.53  0.00  0.00   48.21   47.15    5.24    0.00    0.00
 2014 318    80     0     0    28.9   59.5   16597   47.9   11.6   1.5   1.2   1.0   2.2   3.1   3.7   4.0   4.0   0.0   0.0   0.1   0.4   0.6   0.5   0.6  1.27  0.68  0.51  0.00  0.00   48.94   47.83    5.24    0.00    0.00
 2014 319    81     0     0    28.9   55.7   16596   44.9   10.8   1.5   1.1   0.9   2.0   2.8   3.4   3.8   3.9   0.0   0.0   0.1   0.4   0.6   0.5   0.5  1.17  0.63  0.50  0.00  0.00   49.63   48.45    5.24    0.00    0.00
 2014 320    82     0     0    28.9   51.0   16596   40.9   10.0   1.5   1.1   0.7   1.7   2.5   3.0   3.5   3.8   0.0   0.0   0.1   0.4   0.6   0.5   0.5  1.04  0.56  0.48  0.00  0.00   50.28   49.04    5.24    0.00    0.00
 2014 321    83     0     0    28.9   46.1   16595   36.8    9.3   1.5   1.0   0.6   1.5   2.1   2.7   3.2   3.6   0.0   0.0   0.1   0.4   0.6   0.5   0.5  0.90  0.49  0.47  0.00  0.00   50.94   49.61    5.24    0.00    0.00
 2014 322    84     0     0    28.9   41.2   16595   32.5    8.7   1.6   0.9   0.5   1.3   1.8   2.3   2.8   3.4   0.0   0.0   0.1   0.4   0.5   0.5   0.5  0.77  0.49  0.46  0.00  0.00   51.60   50.19    5.24    0.00    0.00
 2014 323    85     0     0    28.9   37.2   16594   29.0    8.1   0.8   1.1   0.7   1.1   1.5   1.9   2.5   3.2   0.0   0.0   0.1   0.4   0.5   0.5   0.5  0.65  0.49  0.45  0.00  0.00   52.28   50.80    5.24    0.00    0.00
 2014 324    86     0     0    28.9   32.9   16593   24.9    8.0   0.4   0.8   0.4   1.0   1.3   1.6   2.2   2.9   0.0   0.0   0.1   0.5   0.6   0.5   0.5  0.55  0.48  0.44  0.00  0.00   53.12   51.30    5.24    0.00    0.00
 2014 325    87     0     0    28.9   29.6   16592   21.9    7.7   0.6   0.5   0.5   0.8   1.1   1.3   1.9   2.7   0.0   0.0   0.1   0.5   0.6   0.5   0.5  0.52  0.48  0.43  0.00  0.00   53.98   52.04    5.24    0.00    0.00
 2014 326    88     0     0    28.9   27.2   16591   19.3    7.9   0.5   0.5   0.3   0.7   0.9   1.1   1.7   2.6   0.0   0.0   0.2   0.6   0.6   0.5   0.5  0.52  0.47  0.42  0.00  0.00   54.78   52.46    5.24    0.00    0.00
 2014 327    89     0     0    28.9   25.2   16591   17.6    7.6   0.8   0.7   0.4   0.6   0.8   0.9   1.5   2.4   0.0   0.0   0.1   0.5   0.6   0.5   0.5  0.52  0.47  0.41  0.00  0.00   55.55   53.21    5.24    0.00    0.00
 2014 328    90     0     0    28.9   22.9   16590   15.3    7.6   0.5   0.4   0.5   0.6   0.6   0.8   1.3   2.2   0.0   0.0   0.1   0.5   0.6   0.5   0.5  0.52  0.47  0.40  0.00  0.00   56.30   53.75    5.24    0.00    0.00
 2014 329    91     0     0    28.9   21.4   16589   13.8    7.6   0.4   0.5   0.5   0.5   0.6   0.6   1.1   2.0   0.0   0.0   0.1   0.5   0.6   0.5   0.5  0.52  0.46  0.39  0.00  0.00   57.03   54.34    5.24    0.00    0.00
 2014 330    92     0     0    28.9   19.6   16589   12.0    7.6   0.6   0.4   0.3   0.5   0.5   0.5   1.0   1.9   0.0   0.0   0.1   0.5   0.6   0.5   0.5  0.52  0.46  0.38  0.00  0.00   57.75   54.90    5.24    0.00    0.00
 2014 331    93     0     0    28.9   18.7   16588   11.1    7.5   0.5   0.5   0.4   0.4   0.5   0.4   0.8   1.7   0.0   0.0   0.1   0.5   0.6   0.5   0.5  0.52  0.46  0.37  0.00  0.00   58.47   55.48    5.24    0.00    0.00
 2014 332    94     0     0    28.9   18.2   16587   10.7    7.5   0.6   0.4   0.4   0.5   0.5   0.4   0.7   1.6   0.0   0.0   0.1   0.5   0.6   0.5   0.5  0.52  0.45  0.36  0.00  0.00   59.18   56.09    5.24    0.00    0.00
 2014 333    95     0     0    28.9   17.9   16587   10.5    7.4   0.7   0.6   0.5   0.5   0.5   0.4   0.6   1.5   0.0   0.0   0.1   0.4   0.6   0.5   0.5  0.52  0.45  0.36  0.00  0.00   59.87   56.68    5.24    0.00    0.00
 2014 334    96     0     0    28.9   17.1   16586    9.8    7.3   0.3   0.4   0.4   0.5   0.6   0.5   0.5   1.3   0.0   0.0   0.1   0.4   0.5   0.5   0.5  0.52  0.45  0.35  0.00  0.00   60.53   57.26    5.24    0.00    0.00
 2014 335    97     0     0    28.9   17.1   16585    9.3    7.8   0.2   0.3   0.4   0.5   0.5   0.5   0.5   1.2   0.0   0.0   0.2   0.5   0.6   0.5   0.5  0.52  0.45  0.34  0.00  0.00   61.32   57.42    5.24    0.00    0.00
 2014 336    98     0     0    28.9   16.8   16584    8.8    7.9   0.2   0.4   0.4   0.4   0.5   0.5   0.5   1.2   0.0   0.0   0.3   0.6   0.6   0.5   0.5  0.52  0.44  0.33  0.00  0.00   62.08   57.59    5.24    0.00    0.00
 2014 337    99     0     0    29.2   16.1   16584    8.2    7.9   0.3   0.4   0.4   0.4   0.5   0.4   0.4   1.0   0.0   0.0   0.4   0.6   0.6   0.5   0.5  0.52  0.45  0.33  0.00  0.00   62.80   57.74    5.24    0.00    0.00
 2014 338   100     0     0    29.3   15.9   16583    8.2    7.7   0.8   0.4   0.4   0.4   0.5   0.4   0.4   0.8   0.0   0.0   0.1   0.6   0.6   0.5   0.5  0.52  0.46  0.32  0.00  0.00   63.52   58.14    5.24    0.00    0.00
 2014 339   101     0     0    29.4   15.6   16582    8.1    7.5   0.5   0.6   0.5   0.4   0.5   0.4   0.4   0.7   0.0   0.0   0.1   0.5   0.6   0.5   0.5  0.52  0.47  0.31  0.00  0.00   64.23   58.55    5.25    0.00    0.00
 2014 340   102     0     0    29.4   15.5   16582    8.0    7.4   0.6   0.4   0.6   0.5   0.5   0.4   0.5   0.7   0.0   0.0   0.1   0.5   0.6   0.5   0.5  0.52  0.46  0.31  0.00  0.00   64.96   59.08    5.25    0.00    0.00
 2014 341   103     0     0    29.4   15.2   16581    7.9    7.4   0.6   0.5   0.3   0.5   0.5   0.5   0.5   0.6   0.0   0.0   0.1   0.5   0.6   0.5   0.5  0.52  0.46  0.30  0.00  0.00   65.73   59.68    5.25    0.00    0.00
 2014 342   104     0     0    29.4   14.5   16580    7.2    7.3   0.7   0.4   0.4   0.4   0.4   0.5   0.5   0.5   0.0   0.0   0.1   0.5   0.6   0.5   0.5  0.52  0.46  0.30  0.00  0.00   66.57   60.36    5.25    0.00    0.00
 2014 343   105     0     0    29.4   14.9   16579    7.6    7.3   0.4   0.7   0.5   0.4   0.4   0.5   0.5   0.5   0.0   0.0   0.1   0.4   0.6   0.5   0.5  0.52  0.45  0.29  0.00  0.00   67.41   61.04    5.25    0.00    0.00
 2014 344   106     0     0    29.4   14.8   16579    7.2    7.6   0.5   0.4   0.3   0.5   0.4   0.5   0.5   0.5   0.0   0.0   0.1   0.6   0.6   0.5   0.5  0.52  0.45  0.28  0.00  0.00   68.31   61.45    5.25    0.00    0.00
 2014 345   107     0     0    29.4   14.8   16578    7.5    7.4   0.5   0.6   0.3   0.5   0.5   0.5   0.4   0.5   0.0   0.0   0.1   0.4   0.6   0.5   0.5  0.52  0.45  0.28  0.00  0.00   69.19   62.10    5.25    0.00    0.00
 2014 346   108     0     0    29.4   14.5   16577    7.2    7.3   0.6   0.4   0.4   0.3   0.5   0.5   0.4   0.5   0.0   0.0   0.1   0.4   0.6   0.5   0.5  0.52  0.45  0.27  0.00  0.00   70.03   62.76    5.25    0.00    0.00
 2014 347   109     0     0    29.4   14.4   16576    7.2    7.3   0.5   0.6   0.4   0.4   0.4   0.5   0.4   0.5   0.0   0.0   0.1   0.5   0.6   0.5   0.5  0.52  0.44  0.27  0.00  0.00   70.84   63.37    5.25    0.00    0.00
 2014 348   110     0     0    29.4   14.7   16575    7.4    7.2   0.6   0.4   0.5   0.4   0.4   0.5   0.5   0.5   0.0   0.0   0.1   0.5   0.6   0.5   0.5  0.52  0.44  0.27  0.00  0.00   71.63   63.98    5.25    0.00    0.00
 2014 349   111     0     0    29.4   14.7   16575    7.5    7.2   0.6   0.5   0.3   0.5   0.4   0.5   0.5   0.5   0.0   0.0   0.1   0.5   0.6   0.5   0.5  0.52  0.44  0.26  0.00  0.00   72.39   64.56    5.25    0.00    0.00
 2014 350   112     0     0    29.4   14.8   16574    7.6    7.2   0.3   0.5   0.4   0.5   0.5   0.5   0.5   0.5   0.0   0.0   0.1   0.5   0.6   0.5   0.5  0.52  0.44  0.26  0.00  0.00   73.16   65.15    5.25    0.00    0.00
 2014 351   113     0     0    29.4   14.9   16573    7.5    7.4   0.3   0.5   0.5   0.5   0.5   0.4   0.5   0.5   0.0   0.0   0.2   0.6   0.6   0.5   0.5  0.52  0.44  0.25  0.00  0.00   73.93   65.53    5.25    0.00    0.00
 2014 352   114     0     0    29.4   15.1   16572    7.7    7.3   0.7   0.5   0.5   0.4   0.5   0.4   0.5   0.5   0.0   0.0   0.1   0.6   0.6   0.5   0.5  0.52  0.43  0.25  0.00  0.00   74.71   66.10    5.25    0.00    0.00
 2014 353   115     0     0    29.4   14.0   16572    6.8    7.2   0.4   0.4   0.3   0.4   0.4   0.4   0.4   0.5   0.0   0.0   0.1   0.5   0.6   0.5   0.5  0.52  0.43  0.25  0.00  0.00   75.49   66.71    5.25    0.00    0.00
 2014 354   116     0     0    29.5   14.4   16571    7.3    7.1   0.3   0.4   0.4   0.4   0.5   0.5   0.5   0.5   0.0   0.0   0.1   0.5   0.6   0.5   0.5  0.52  0.43  0.24  0.00  0.00   76.27   67.33    5.25    0.00    0.00
 2014 355   117     0     0    29.7   14.8   16570    7.2    7.6   0.4   0.4   0.4   0.4   0.5   0.4   0.5   0.5   0.0   0.0   0.1   0.6   0.6   0.5   0.5  0.52  0.44  0.25  0.00  0.00   77.07   67.48    5.25    0.00    0.00
 2014 356   118     0     0    29.8   14.9   16569    7.3    7.6   0.6   0.5   0.4   0.4   0.5   0.4   0.5   0.5   0.0   0.0   0.1   0.6   0.6   0.5   0.5  0.52  0.45  0.25  0.00  0.00   77.88   67.72    5.25    0.00    0.00
 2014 357   119     0     0    29.8   14.9   16569    7.6    7.3   0.4   0.7   0.5   0.4   0.5   0.4   0.5   0.5   0.0   0.0   0.1   0.5   0.6   0.5   0.5  0.52  0.46  0.25  0.00  0.00   78.68   68.23    5.25    0.00    0.00
 2014 358   120     0     0    29.8   14.9   16568    7.5    7.4   0.6   0.4   0.6   0.4   0.5   0.4   0.5   0.5   0.0   0.0   0.1   0.5   0.6   0.5   0.5  0.52  0.46  0.25  0.00  0.00   79.45   68.65    5.25    0.00    0.00
 2014 359   121     0     0    29.8   14.7   16567    7.4    7.3   0.3   0.6   0.3   0.5   0.5   0.5   0.5   0.5   0.0   0.0   0.1   0.5   0.6   0.5   0.5  0.52  0.47  0.25  0.00  0.00   80.20   69.19    5.25    0.00    0.00
 2014 360   122     0     0    29.9   15.0   16567    7.5    7.6   0.2   0.3   0.4   0.5   0.6   0.5   0.5   0.5   0.0   0.0   0.2   0.6   0.6   0.5   0.5  0.52  0.47  0.26  0.00  0.00   80.95   69.46    5.25    0.00    0.00
 2014 361   123     0     0    30.0   15.1   16566    7.5    7.7   0.5   0.3   0.4   0.5   0.5   0.5   0.5   0.5   0.0   0.0   0.1   0.6   0.6   0.5   0.5  0.52  0.48  0.26  0.00  0.00   81.69   69.72    5.25    0.00    0.00
 2014 362   124     0     0    30.0   15.0   16565    7.3    7.7   0.4   0.4   0.4   0.5   0.4   0.5   0.5   0.5   0.0   0.0   0.1   0.6   0.6   0.5   0.5  0.52  0.48  0.26  0.00  0.00   82.47   69.91    5.25    0.00    0.00
 2014 363   125     0     0    30.0   15.2   16564    7.7    7.5   0.6   0.6   0.4   0.5   0.4   0.5   0.5   0.5   0.0   0.0   0.1   0.5   0.6   0.5   0.5  0.52  0.49  0.26  0.00  0.00   83.28   70.34    5.25    0.00    0.00
 2014 364   126     0     0    30.0   15.2   16564    7.8    7.4   0.6   0.4   0.5   0.5   0.4   0.5   0.5   0.5   0.0   0.0   0.1   0.5   0.6   0.5   0.5  0.52  0.49  0.26  0.00  0.00   84.09   70.87    5.25    0.00    0.00
 2014 365   127     0     0    30.0   15.4   16563    8.0    7.4   0.6   0.6   0.6   0.5   0.4   0.5   0.4   0.5   0.0   0.0   0.1   0.5   0.6   0.5   0.5  0.52  0.48  0.26  0.00  0.00   84.91   71.45    5.25    0.00    0.00
 2015 001   128     0     0    30.0   14.6   16562    7.3    7.3   0.5   0.5   0.3   0.4   0.5   0.5   0.4   0.5   0.0   0.0   0.1   0.5   0.6   0.5   0.5  0.52  0.48  0.26  0.00  0.00   85.76   72.11    5.25    0.00    0.00
 2015 002   129     0     0    30.0   15.0   16561    7.7    7.3   0.4   0.6   0.4   0.4   0.5   0.5   0.5   0.5   0.0   0.0   0.1   0.5   0.6   0.5   0.5  0.52  0.48  0.25  0.00  0.00   86.61   72.77    5.25    0.00    0.00
 2015 003   130     0     0    30.0   14.8   16560    7.5    7.3   0.6   0.4   0.5   0.5   0.4   0.5   0.5   0.5   0.0   0.0   0.1   0.5   0.6   0.5   0.5  0.52  0.47  0.25  0.00  0.00   87.45   73.42    5.25    0.00    0.00
 2015 004   131     0     0    30.0   15.3   16560    8.1    7.3   0.6   0.6   0.6   0.5   0.4   0.5   0.5   0.5   0.0   0.0   0.1   0.5   0.6   0.5   0.5  0.52  0.47  0.25  0.00  0.00   88.25   74.04    5.25    0.00    0.00
 2015 005   132     0     0    30.0   14.7   16559    7.5    7.2   0.6   0.4   0.3   0.4   0.5   0.5   0.5   0.5   0.0   0.0   0.1   0.5   0.6   0.5   0.5  0.52  0.47  0.24  0.00  0.00   89.06   74.67    5.25    0.00    0.00
 2015 006   133     0     0    30.0   14.8   16558    7.6    7.2   0.5   0.6   0.4   0.4   0.5   0.4   0.5   0.5   0.0   0.0   0.1   0.4   0.6   0.5   0.5  0.52  0.46  0.24  0.00  0.00   89.84   75.28    5.25    0.00    0.00
 2015 007   134     0     0    30.0   14.6   16557    7.4    7.2   0.3   0.4   0.5   0.5   0.5   0.4   0.5   0.5   0.0   0.0   0.1   0.5   0.6   0.5   0.5  0.52  0.46  0.24  0.00  0.00   90.66   75.90    5.25    0.00    0.00
 2015 008   135     0     0    30.0   14.8   16557    7.6    7.2   0.5   0.6   0.6   0.5   0.4   0.4   0.5   0.5   0.0   0.0   0.1   0.5   0.6   0.5   0.5  0.52  0.46  0.23  0.00  0.00   91.49   76.55    5.25    0.00    0.00
 2015 009   136     0     0    30.0   14.2   16556    7.0    7.2   0.4   0.4   0.3   0.4   0.5   0.4   0.5   0.5   0.0   0.0   0.1   0.5   0.6   0.5   0.5  0.52  0.46  0.23  0.00  0.00   92.31   77.18    5.25    0.00    0.00
 2015 010   137     0     0    30.0   14.8   16555    7.6    7.2   0.6   0.6   0.4   0.5   0.5   0.4   0.5   0.5   0.0   0.0   0.1   0.5   0.6   0.5   0.5  0.52  0.45  0.23  0.00  0.00   93.14   77.82    5.25    0.00    0.00
 2015 011   138     0     0    30.0   15.0   16554    7.8    7.1   0.6   0.4   0.5   0.5   0.5   0.4   0.5   0.5   0.0   0.0   0.1   0.5   0.6   0.5   0.5  0.52  0.45  0.22  0.00  0.00   93.94   78.46    5.25    0.00    0.00
 2015 012   139     0     0    30.0   14.7   16553    7.5    7.2   0.3   0.6   0.6   0.5   0.4   0.4   0.4   0.5   0.0   0.0   0.2   0.5   0.6   0.5   0.5  0.52  0.45  0.22  0.00  0.00   94.73   78.98    5.25    0.00    0.00
 2015 013   140     0     0    30.0   14.5   16553    7.4    7.1   0.5   0.4   0.4   0.5   0.5   0.5   0.5   0.5   0.0   0.0   0.0   0.5   0.6   0.5   0.5  0.52  0.45  0.22  0.00  0.00   95.54   79.73    5.25    0.00    0.00
 2015 014   141     0     0    30.0   14.9   16552    7.6    7.3   0.3   0.4   0.5   0.5   0.5   0.5   0.5   0.5   0.0   0.0   0.2   0.6   0.6   0.5   0.5  0.52  0.44  0.22  0.00  0.00   96.38   80.13    5.25    0.00    0.00
 2015 015   142     0     0    30.0   15.0   16551    7.7    7.3   0.6   0.5   0.6   0.5   0.4   0.5   0.5   0.5   0.0   0.0   0.1   0.6   0.6   0.5   0.5  0.52  0.44  0.21  0.00  0.00   97.20   80.72    5.25    0.00    0.00
 2015 016   143     0     0    30.0   14.8   16550    7.7    7.1   0.4   0.7   0.3   0.5   0.5   0.5   0.5   0.5   0.0   0.0   0.1   0.4   0.6   0.5   0.5  0.52  0.44  0.21  0.00  0.00   98.02   81.36    5.25    0.00    0.00
 2015 017   144     0     0    30.0   14.8   16549    7.7    7.1   0.6   0.4   0.4   0.5   0.5   0.5   0.5   0.5   0.0   0.0   0.1   0.5   0.6   0.5   0.5  0.52  0.44  0.21  0.00  0.00   98.83   82.00    5.25    0.00    0.00
 2015 018   145     0     0    30.0   15.0   16549    7.9    7.1   0.4   0.6   0.5   0.5   0.5   0.5   0.5   0.5   0.0   0.0   0.1   0.5   0.6   0.5   0.5  0.52  0.44  0.21  0.00  0.00   99.62   82.60    5.25    0.00    0.00
 2015 019   146     0     0    30.0   15.3   16548    8.1    7.2   0.6   0.4   0.6   0.6   0.5   0.5   0.5   0.5   0.0   0.0   0.1   0.6   0.6   0.5   0.5  0.52  0.43  0.20  0.00  0.00  100.43   83.07    5.25    0.00    0.00
 2015 020   147     0     0    30.0   14.9   16547    7.8    7.1   0.6   0.6   0.3   0.5   0.5   0.5   0.5   0.5   0.0   0.0   0.1   0.5   0.6   0.5   0.5  0.52  0.43  0.20  0.00  0.00  101.27   83.78    5.25    0.00    0.00
 2015 021   148     0     0    30.0   14.9   16546    7.9    7.1   0.6   0.4   0.4   0.6   0.5   0.5   0.5   0.5   0.0   0.0   0.1   0.5   0.6   0.5   0.5  0.52  0.43  0.20  0.00  0.00  102.09   84.41    5.25    0.00    0.00
 2015 022   149     0     0    30.0   15.3   16546    8.2    7.0   0.6   0.6   0.5   0.5   0.5   0.5   0.5   0.5   0.0   0.0   0.1   0.5   0.6   0.5   0.5  0.52  0.43  0.20  0.00  0.00  102.90   85.05    5.25    0.00    0.00
 2015 023   150     0     0    30.0   15.2   16545    8.2    7.0   0.7   0.6   0.6   0.5   0.5   0.5   0.5   0.5   0.0   0.0   0.1   0.5   0.6   0.5   0.5  0.52  0.43  0.20  0.00  0.00  103.70   85.66    5.25    0.00    0.00
 2015 024   151     0     0    30.0   15.5   16544    8.5    7.0   0.8   0.6   0.5   0.6   0.5   0.5   0.5   0.5   0.0   0.0   0.1   0.4   0.6   0.5   0.5  0.52  0.42  0.19  0.00  0.00  104.48   86.27    5.25    0.00    0.00
 2015 025   152     0     0    30.0   16.0   16543    8.9    7.1   1.0   0.7   0.6   0.6   0.6   0.5   0.5   0.5   0.0   0.0   0.1   0.4   0.6   0.5   0.5  0.52  0.42  0.19  0.00  0.00  105.25   86.86    5.25    0.00    0.00
 2015 026   153     0     0    30.0   16.8   16543    9.5    7.2   1.1   0.9   0.7   0.6   0.6   0.5   0.5   0.5   0.0   0.0   0.1   0.4   0.7   0.5   0.5  0.54  0.42  0.19  0.00  0.00  106.04   87.48    5.25    0.00    0.00
 2015 027   154     0     0    30.0   17.6   16542   10.2    7.4   1.3   1.0   0.7   0.7   0.6   0.5   0.5   0.5   0.0   0.0   0.1   0.4   0.7   0.5   0.5  0.56  0.42  0.19  0.00  0.00  106.84   88.13    5.25    0.00    0.00
 2015 028   155     0     0    30.0   18.4   16541   10.9    7.5   0.8   1.3   1.0   0.7   0.7   0.5   0.6   0.5   0.0   0.0   0.1   0.4   0.8   0.5   0.5  0.57  0.42  0.19  0.00  0.00  107.68   88.83    5.25    0.00    0.00
 2015 029   156     0     0    30.0   19.3   16540   11.4    7.9   0.9   1.3   1.1   0.8   0.7   0.5   0.6   0.5   0.0   0.0   0.1   0.6   0.8   0.5   0.5  0.59  0.42  0.19  0.00  0.00  108.60   89.38    5.25    0.00    0.00
