*SOIL TEMPERATURE OUTPUT FILE (DAILY)

*DSSAT Cropping System Model Ver. 4.0.2.000               Aug 29, 2016; 09:16:37

*RUN   1        : UYSB                    
 MODEL          : CRGRO040 - Soybean         
 EXPERIMENT     : UYSB0405 SB    late to create DSS                             
 TREATMENT  1   : UYSB                    

@YEAR DOY   DAS  TS1D  TS2D  TS3D  TS4D  TS5D  TS6D  TS7D  TS8D  TS9D  TS10
 2000 238     0  16.9  16.7  16.7  16.9  17.1  17.4  17.6  17.6   0.0   0.0
 2000 239     1  16.4  16.3  16.4  16.6  16.9  17.2  17.5  17.6   0.0   0.0
 2000 240     2  16.3  16.2  16.3  16.5  16.8  17.2  17.4  17.5   0.0   0.0
 2000 241     3  15.0  15.1  15.4  15.8  16.3  16.8  17.2  17.4   0.0   0.0
 2000 242     4  14.4  14.6  15.0  15.5  16.0  16.7  17.1  17.3   0.0   0.0
 2000 243     5  15.1  15.2  15.4  15.9  16.3  16.8  17.2  17.4   0.0   0.0
 2000 244     6  14.8  14.9  15.2  15.7  16.2  16.7  17.1  17.3   0.0   0.0
 2000 245     7  14.0  14.2  14.7  15.3  15.8  16.5  17.0  17.2   0.0   0.0
 2000 246     8  14.6  14.7  15.1  15.6  16.0  16.6  17.1  17.3   0.0   0.0
 2000 247     9  14.6  14.7  15.1  15.6  16.0  16.6  17.1  17.3   0.0   0.0
 2000 248    10  14.6  14.7  15.0  15.5  16.0  16.6  17.1  17.3   0.0   0.0
 2000 249    11  15.4  15.4  15.6  15.9  16.3  16.8  17.2  17.3   0.0   0.0
 2000 250    12  16.7  16.5  16.5  16.6  16.8  17.1  17.4  17.5   0.0   0.0
 2000 251    13  18.5  18.1  17.7  17.5  17.5  17.6  17.6  17.7   0.0   0.0
 2000 252    14  20.5  19.8  19.1  18.5  18.2  18.0  17.9  17.9   0.0   0.0
 2000 253    15  20.9  20.2  19.3  18.7  18.4  18.1  18.0  17.9   0.0   0.0
 2000 254    16  21.7  20.8  19.8  19.1  18.6  18.3  18.1  18.0   0.0   0.0
 2000 255    17  21.7  20.9  19.9  19.1  18.6  18.3  18.1  18.0   0.0   0.0
 2000 256    18  19.8  19.2  18.5  18.1  17.9  17.8  17.8  17.8   0.0   0.0
 2000 257    19  16.7  16.5  16.4  16.5  16.7  17.0  17.3  17.4   0.0   0.0
 2000 258    20  14.7  14.8  15.0  15.4  15.9  16.5  16.9  17.2   0.0   0.0
 2000 259    21  13.0  13.3  13.8  14.5  15.2  16.0  16.6  16.9   0.0   0.0
 2000 260    22  12.2  12.6  13.3  14.1  14.9  15.8  16.5  16.8   0.0   0.0
 2000 261    23  12.9  13.2  13.8  14.4  15.1  15.9  16.6  16.9   0.0   0.0
 2000 262    24  14.4  14.5  14.8  15.2  15.7  16.3  16.8  17.1   0.0   0.0
 2000 263    25  16.3  16.2  16.1  16.2  16.4  16.8  17.1  17.3   0.0   0.0
 2000 264    26  17.6  17.3  17.0  16.8  16.9  17.1  17.3  17.4   0.0   0.0
 2000 265    27  17.9  17.5  17.1  17.0  17.0  17.1  17.3  17.4   0.0   0.0
 2000 266    28  18.0  17.6  17.2  17.0  17.0  17.2  17.4  17.5   0.0   0.0
 2000 267    29  18.4  17.9  17.5  17.2  17.2  17.3  17.4  17.5   0.0   0.0
 2000 268    30  17.0  16.7  16.5  16.5  16.6  16.9  17.2  17.3   0.0   0.0
 2000 269    31  15.6  15.5  15.6  15.8  16.1  16.5  16.9  17.2   0.0   0.0
 2000 270    32  15.2  15.2  15.3  15.6  15.9  16.4  16.9  17.1   0.0   0.0
 2000 271    33  16.0  15.9  15.8  15.9  16.2  16.6  17.0  17.2   0.0   0.0
 2000 272    34  17.0  16.8  16.5  16.5  16.6  16.8  17.1  17.3   0.0   0.0
 2000 273    35  19.4  18.8  18.1  17.7  17.5  17.4  17.5  17.5   0.0   0.0
 2000 274    36  21.6  20.7  19.6  18.8  18.3  18.0  17.8  17.8   0.0   0.0
 2000 275    37  23.3  22.2  20.8  19.6  19.0  18.4  18.1  18.0   0.0   0.0
 2000 276    38  22.6  21.6  20.3  19.3  18.7  18.2  18.0  17.9   0.0   0.0
 2000 277    39  21.5  20.7  19.6  18.7  18.3  17.9  17.8  17.8   0.0   0.0
 2000 278    40  20.2  19.5  18.6  18.0  17.7  17.6  17.6  17.6   0.0   0.0
 2000 279    41  18.9  18.4  17.8  17.4  17.2  17.2  17.3  17.4   0.0   0.0
 2000 280    42  17.9  17.5  17.0  16.8  16.8  16.9  17.2  17.3   0.0   0.0
 2000 281    43  18.2  17.8  17.3  17.0  16.9  17.0  17.2  17.3   0.0   0.0
 2000 282    44  18.7  18.2  17.6  17.2  17.1  17.1  17.3  17.4   0.0   0.0
 2000 283    45  18.6  18.1  17.5  17.2  17.0  17.1  17.2  17.4   0.0   0.0
 2000 284    46  18.6  18.1  17.5  17.1  17.0  17.1  17.2  17.3   0.0   0.0
 2000 285    47  19.1  18.5  17.8  17.4  17.2  17.2  17.3  17.4   0.0   0.0
 2000 286    48  20.1  19.4  18.5  17.9  17.6  17.4  17.5  17.5   0.0   0.0
 2000 287    49  20.1  19.3  18.5  17.9  17.6  17.4  17.4  17.5   0.0   0.0
 2000 288    50  20.3  19.6  18.7  18.0  17.7  17.5  17.5  17.5   0.0   0.0
 2000 289    51  20.4  19.7  18.7  18.1  17.7  17.5  17.5  17.5   0.0   0.0
 2000 290    52  20.6  19.8  18.9  18.1  17.8  17.5  17.5  17.5   0.0   0.0
 2000 291    53  19.7  19.0  18.2  17.7  17.4  17.3  17.3  17.4   0.0   0.0
 2000 292    54  19.7  19.1  18.3  17.7  17.4  17.3  17.3  17.4   0.0   0.0
 2000 293    55  19.9  19.2  18.4  17.8  17.5  17.3  17.4  17.4   0.0   0.0
 2000 294    56  20.9  20.1  19.1  18.3  17.8  17.6  17.5  17.5   0.0   0.0
 2000 295    57  21.8  20.9  19.7  18.8  18.2  17.8  17.6  17.6   0.0   0.0
 2000 296    58  21.6  20.7  19.5  18.6  18.1  17.7  17.6  17.6   0.0   0.0
 2000 297    59  20.9  20.1  19.0  18.2  17.8  17.5  17.5  17.5   0.0   0.0
 2000 298    60  21.0  20.1  19.1  18.3  17.8  17.5  17.5  17.5   0.0   0.0
 2000 299    61  20.5  19.7  18.8  18.0  17.6  17.4  17.4  17.4   0.0   0.0
 2000 300    62  19.9  19.2  18.3  17.7  17.4  17.2  17.3  17.3   0.0   0.0
 2000 301    63  20.7  19.9  18.9  18.2  17.7  17.4  17.4  17.4   0.0   0.0
 2000 302    64  21.1  20.3  19.2  18.4  17.9  17.5  17.5  17.5   0.0   0.0
 2000 303    65  20.8  19.9  18.9  18.2  17.7  17.4  17.4  17.4   0.0   0.0
 2000 304    66  21.7  20.7  19.6  18.6  18.1  17.6  17.5  17.5   0.0   0.0
 2000 305    67  22.3  21.3  20.0  18.9  18.3  17.8  17.6  17.6   0.0   0.0
 2000 306    68  22.0  21.0  19.8  18.8  18.2  17.7  17.6  17.5   0.0   0.0
 2000 307    69  22.3  21.3  20.0  18.9  18.3  17.8  17.6  17.6   0.0   0.0
 2000 308    70  23.3  22.1  20.7  19.4  18.7  18.0  17.8  17.7   0.0   0.0
 2000 309    71  22.3  21.3  20.0  19.0  18.3  17.8  17.6  17.6   0.0   0.0
 2000 310    72  21.8  20.9  19.7  18.7  18.1  17.6  17.5  17.5   0.0   0.0
 2000 311    73  22.1  21.2  19.9  18.9  18.2  17.7  17.5  17.5   0.0   0.0
 2000 312    74  22.2  21.2  19.9  18.9  18.2  17.7  17.6  17.5   0.0   0.0
 2000 313    75  22.4  21.4  20.0  19.0  18.3  17.8  17.6  17.5   0.0   0.0
 2000 314    76  22.2  21.2  19.9  18.9  18.2  17.7  17.5  17.5   0.0   0.0
 2000 315    77  22.1  21.1  19.9  18.8  18.2  17.7  17.5  17.5   0.0   0.0
 2000 316    78  22.2  21.2  19.9  18.9  18.2  17.7  17.5  17.5   0.0   0.0
 2000 317    79  22.7  21.7  20.3  19.2  18.4  17.8  17.6  17.5   0.0   0.0
 2000 318    80  22.2  21.2  20.0  18.9  18.2  17.7  17.5  17.5   0.0   0.0
 2000 319    81  21.4  20.6  19.4  18.5  17.9  17.5  17.4  17.4   0.0   0.0
 2000 320    82  20.1  19.4  18.5  17.8  17.4  17.2  17.2  17.2   0.0   0.0
 2000 321    83  19.6  19.0  18.2  17.5  17.2  17.0  17.1  17.2   0.0   0.0
 2000 322    84  19.6  19.0  18.2  17.6  17.2  17.0  17.1  17.2   0.0   0.0
 2000 323    85  20.8  20.0  19.0  18.2  17.7  17.3  17.3  17.3   0.0   0.0
 2000 324    86  23.2  22.1  20.7  19.4  18.6  17.9  17.6  17.6   0.0   0.0
 2000 325    87  24.4  23.2  21.5  20.0  19.1  18.2  17.8  17.7   0.0   0.0
 2000 326    88  25.2  23.9  22.0  20.4  19.4  18.4  17.9  17.8   0.0   0.0
 2000 327    89  25.6  24.2  22.3  20.6  19.5  18.5  18.0  17.8   0.0   0.0
 2000 328    90  26.3  24.8  22.8  21.0  19.8  18.7  18.1  17.9   0.0   0.0
 2000 329    91  24.7  23.4  21.7  20.2  19.2  18.3  17.9  17.7   0.0   0.0
 2000 330    92  24.9  23.6  21.8  20.3  19.3  18.3  17.9  17.7   0.0   0.0
 2000 331    93  25.2  23.8  22.0  20.4  19.4  18.4  17.9  17.7   0.0   0.0
 2000 332    94  24.9  23.6  21.8  20.3  19.2  18.3  17.9  17.7   0.0   0.0
 2000 333    95  22.9  21.9  20.5  19.3  18.5  17.8  17.5  17.5   0.0   0.0
 2000 334    96  22.8  21.7  20.4  19.2  18.4  17.8  17.5  17.5   0.0   0.0
 2000 335    97  22.6  21.6  20.3  19.1  18.4  17.8  17.5  17.4   0.0   0.0
 2000 336    98  21.8  20.9  19.7  18.7  18.1  17.5  17.4  17.3   0.0   0.0
 2000 337    99  22.0  21.1  19.9  18.9  18.2  17.6  17.4  17.4   0.0   0.0
 2000 338   100  23.0  22.0  20.6  19.4  18.6  17.9  17.6  17.5   0.0   0.0
 2000 339   101  23.3  22.2  20.8  19.5  18.7  17.9  17.6  17.5   0.0   0.0
 2000 340   102  23.4  22.3  20.9  19.6  18.7  18.0  17.6  17.5   0.0   0.0
 2000 341   103  24.5  23.3  21.6  20.2  19.2  18.2  17.8  17.6   0.0   0.0
 2000 342   104  25.2  23.9  22.1  20.5  19.4  18.4  17.9  17.7   0.0   0.0
 2000 343   105  26.1  24.7  22.7  21.0  19.8  18.6  18.0  17.8   0.0   0.0
 2000 344   106  28.1  26.4  24.1  22.0  20.5  19.1  18.3  18.0   0.0   0.0
 2000 345   107  29.3  27.5  24.9  22.6  21.0  19.4  18.5  18.1   0.0   0.0
 2000 346   108  29.2  27.4  24.9  22.6  21.0  19.4  18.5  18.1   0.0   0.0
 2000 347   109  29.4  27.5  25.0  22.7  21.1  19.5  18.5  18.2   0.0   0.0
 2000 348   110  29.8  27.9  25.3  22.9  21.2  19.6  18.6  18.2   0.0   0.0
 2000 349   111  29.4  27.6  25.1  22.8  21.1  19.5  18.6  18.2   0.0   0.0
 2000 350   112  29.3  27.5  25.0  22.7  21.1  19.5  18.6  18.2   0.0   0.0
 2000 351   113  28.0  26.4  24.1  22.1  20.6  19.2  18.4  18.0   0.0   0.0
 2000 352   114  26.8  25.3  23.3  21.5  20.1  18.9  18.2  17.9   0.0   0.0
 2000 353   115  26.0  24.6  22.8  21.1  19.8  18.7  18.0  17.8   0.0   0.0
 2000 354   116  25.4  24.1  22.3  20.7  19.6  18.5  17.9  17.7   0.0   0.0
 2000 355   117  25.4  24.1  22.4  20.8  19.6  18.5  17.9  17.7   0.0   0.0
 2000 356   118  25.2  23.9  22.2  20.7  19.5  18.5  17.9  17.7   0.0   0.0
 2000 357   119  25.9  24.6  22.7  21.1  19.8  18.7  18.0  17.8   0.0   0.0
 2000 358   120  24.3  23.2  21.6  20.2  19.2  18.3  17.8  17.6   0.0   0.0
 2000 359   121  24.1  23.1  21.6  20.2  19.2  18.2  17.7  17.6   0.0   0.0
 2000 360   122  24.5  23.4  21.8  20.4  19.3  18.3  17.8  17.6   0.0   0.0
 2000 361   123  27.2  25.7  23.6  21.7  20.4  19.0  18.2  17.9   0.0   0.0
 2000 362   124  26.8  25.4  23.4  21.6  20.3  18.9  18.2  17.9   0.0   0.0
 2000 363   125  27.7  26.2  24.1  22.1  20.6  19.2  18.3  18.0   0.0   0.0
 2000 364   126  27.2  25.8  23.8  21.9  20.5  19.1  18.3  17.9   0.0   0.0
 2000 365   127  26.3  25.0  23.1  21.4  20.1  18.9  18.1  17.8   0.0   0.0
 2000 366   128  25.2  24.1  22.4  20.9  19.7  18.6  18.0  17.7   0.0   0.0
 2001 001   129  25.9  24.6  22.8  21.1  19.9  18.7  18.0  17.8   0.0   0.0
 2001 002   130  26.8  25.4  23.4  21.6  20.3  18.9  18.2  17.9   0.0   0.0
 2001 003   131  28.5  26.9  24.6  22.5  20.9  19.4  18.5  18.1   0.0   0.0
 2001 004   132  29.7  27.9  25.4  23.1  21.4  19.7  18.6  18.2   0.0   0.0
 2001 005   133  30.3  28.5  25.9  23.4  21.6  19.9  18.8  18.3   0.0   0.0
 2001 006   134  31.0  29.1  26.3  23.8  21.9  20.0  18.9  18.4   0.0   0.0
 2001 007   135  30.6  28.7  26.1  23.6  21.8  19.9  18.8  18.3   0.0   0.0
 2001 008   136  29.7  28.0  25.5  23.2  21.5  19.8  18.7  18.2   0.0   0.0
 2001 009   137  29.2  27.5  25.2  23.0  21.3  19.6  18.6  18.2   0.0   0.0
 2001 010   138  27.3  25.9  23.9  22.0  20.6  19.2  18.3  18.0   0.0   0.0
 2001 011   139  25.2  24.1  22.5  21.0  19.8  18.7  18.0  17.7   0.0   0.0
 2001 012   140  24.4  23.4  22.0  20.6  19.5  18.5  17.9  17.6   0.0   0.0
 2001 013   141  24.2  23.2  21.8  20.5  19.4  18.4  17.8  17.6   0.0   0.0
 2001 014   142  24.2  23.2  21.8  20.4  19.4  18.4  17.8  17.6   0.0   0.0
 2001 015   143  25.3  24.2  22.6  21.1  19.9  18.7  18.0  17.8   0.0   0.0
 2001 016   144  26.6  25.3  23.5  21.7  20.4  19.1  18.2  17.9   0.0   0.0
 2001 017   145  27.0  25.7  23.8  22.0  20.6  19.2  18.3  18.0   0.0   0.0
 2001 018   146  26.7  25.4  23.6  21.8  20.5  19.1  18.3  17.9   0.0   0.0
 2001 019   147  26.0  24.8  23.1  21.5  20.2  18.9  18.2  17.8   0.0   0.0
 2001 020   148  25.5  24.4  22.8  21.2  20.0  18.8  18.1  17.8   0.0   0.0
 2001 021   149  25.0  23.9  22.4  20.9  19.8  18.7  18.0  17.7   0.0   0.0
 2001 022   150  25.0  23.9  22.4  21.0  19.8  18.7  18.0  17.7   0.0   0.0
 2001 023   151  26.0  24.8  23.1  21.5  20.2  19.0  18.2  17.9   0.0   0.0
 2001 024   152  27.3  25.9  24.0  22.2  20.7  19.3  18.4  18.0   0.0   0.0
 2001 025   153  28.5  27.0  24.8  22.8  21.2  19.6  18.6  18.1   0.0   0.0
 2001 026   154  29.7  28.0  25.7  23.4  21.7  19.9  18.8  18.3   0.0   0.0
 2001 027   155  29.6  28.0  25.6  23.4  21.7  19.9  18.8  18.3   0.0   0.0
 2001 028   156  27.9  26.5  24.5  22.6  21.1  19.5  18.5  18.1   0.0   0.0
 2001 029   157  26.8  25.6  23.8  22.0  20.7  19.3  18.4  18.0   0.0   0.0
 2001 030   158  25.7  24.7  23.0  21.5  20.3  19.0  18.2  17.9   0.0   0.0
 2001 031   159  25.2  24.2  22.7  21.2  20.1  18.9  18.1  17.8   0.0   0.0
 2001 032   160  25.9  24.8  23.2  21.6  20.4  19.1  18.2  17.9   0.0   0.0
 2001 033   161  27.9  26.6  24.6  22.6  21.1  19.6  18.6  18.1   0.0   0.0
 2001 034   162  27.9  26.6  24.6  22.6  21.1  19.6  18.6  18.1   0.0   0.0
 2001 035   163  28.3  26.9  24.8  22.8  21.3  19.7  18.6  18.2   0.0   0.0
 2001 036   164  27.9  26.5  24.6  22.7  21.2  19.6  18.6  18.1   0.0   0.0
 2001 037   165  28.2  26.8  24.8  22.8  21.3  19.7  18.6  18.2   0.0   0.0
 2001 038   166  28.6  27.1  25.1  23.0  21.5  19.8  18.7  18.2   0.0   0.0
 2001 039   167  29.1  27.6  25.4  23.3  21.7  19.9  18.8  18.3   0.0   0.0
 2001 040   168  29.7  28.1  25.9  23.7  22.0  20.2  18.9  18.4   0.0   0.0
 2001 041   169  30.1  28.5  26.2  23.9  22.2  20.3  19.0  18.4   0.0   0.0
 2001 042   170  30.3  28.7  26.3  24.0  22.2  20.3  19.1  18.5   0.0   0.0

*DSSAT Cropping System Model Ver. 4.0.2.000               Aug 29, 2016; 09:16:37

*RUN   2        : UYSB                    
 MODEL          : CRGRO040 - Soybean         
 EXPERIMENT     : UYSB0405 SB    late to create DSS                             
 TREATMENT  1   : UYSB                    

@YEAR DOY   DAS  TS1D  TS2D  TS3D  TS4D  TS5D  TS6D  TS7D  TS8D  TS9D  TS10
 2001 238     0  20.4  19.8  19.1  18.6  18.4  18.2  18.1  18.0   0.0   0.0
 2001 239     1  20.1  19.5  18.9  18.5  18.3  18.1  18.0  18.0   0.0   0.0
 2001 240     2  19.1  18.7  18.2  18.0  17.9  17.9  17.9  17.8   0.0   0.0
 2001 241     3  19.3  18.8  18.3  18.0  17.9  17.9  17.9  17.9   0.0   0.0
 2001 242     4  20.0  19.4  18.8  18.4  18.2  18.1  18.0  17.9   0.0   0.0
 2001 243     5  19.2  18.8  18.3  18.0  17.9  17.9  17.9  17.8   0.0   0.0
 2001 244     6  19.3  18.8  18.3  18.0  17.9  17.9  17.9  17.8   0.0   0.0
 2001 245     7  19.5  19.0  18.5  18.1  18.0  17.9  17.9  17.9   0.0   0.0
 2001 246     8  18.4  18.1  17.7  17.5  17.5  17.6  17.7  17.7   0.0   0.0
 2001 247     9  16.4  16.3  16.3  16.5  16.7  17.1  17.3  17.5   0.0   0.0
 2001 248    10  15.1  15.2  15.4  15.8  16.2  16.7  17.1  17.3   0.0   0.0
 2001 249    11  14.7  14.8  15.1  15.5  16.0  16.6  17.0  17.2   0.0   0.0
 2001 250    12  14.8  14.9  15.2  15.6  16.0  16.6  17.0  17.2   0.0   0.0
 2001 251    13  15.2  15.3  15.4  15.8  16.2  16.7  17.1  17.3   0.0   0.0
 2001 252    14  15.5  15.5  15.6  15.9  16.3  16.8  17.1  17.3   0.0   0.0
 2001 253    15  15.8  15.7  15.8  16.0  16.4  16.8  17.2  17.3   0.0   0.0
 2001 254    16  15.7  15.7  15.8  16.0  16.3  16.8  17.1  17.3   0.0   0.0
 2001 255    17  15.9  15.8  15.8  16.1  16.4  16.8  17.2  17.3   0.0   0.0
 2001 256    18  16.2  16.1  16.1  16.2  16.5  16.9  17.2  17.4   0.0   0.0
 2001 257    19  16.3  16.1  16.1  16.3  16.5  16.9  17.2  17.4   0.0   0.0
 2001 258    20  15.7  15.7  15.7  16.0  16.3  16.7  17.1  17.3   0.0   0.0
 2001 259    21  14.8  14.9  15.1  15.5  15.9  16.5  16.9  17.2   0.0   0.0
 2001 260    22  14.3  14.4  14.7  15.2  15.7  16.3  16.8  17.1   0.0   0.0
 2001 261    23  14.5  14.6  14.9  15.3  15.7  16.4  16.9  17.1   0.0   0.0
 2001 262    24  15.8  15.7  15.7  15.9  16.2  16.7  17.1  17.2   0.0   0.0
 2001 263    25  17.9  17.5  17.2  17.0  17.0  17.2  17.4  17.5   0.0   0.0
 2001 264    26  20.1  19.5  18.7  18.2  17.9  17.8  17.7  17.7   0.0   0.0
 2001 265    27  21.9  21.0  19.9  19.1  18.6  18.2  18.0  17.9   0.0   0.0
 2001 266    28  22.3  21.3  20.1  19.2  18.7  18.3  18.0  18.0   0.0   0.0
 2001 267    29  22.9  21.8  20.5  19.5  18.9  18.4  18.1  18.0   0.0   0.0
 2001 268    30  21.7  20.8  19.7  18.9  18.4  18.1  17.9  17.9   0.0   0.0
 2001 269    31  20.4  19.7  18.8  18.2  17.9  17.7  17.7  17.7   0.0   0.0
 2001 270    32  18.5  18.1  17.5  17.3  17.2  17.3  17.4  17.5   0.0   0.0
 2001 271    33  17.9  17.5  17.1  16.9  16.9  17.1  17.3  17.4   0.0   0.0
 2001 272    34  17.1  16.8  16.5  16.5  16.6  16.9  17.1  17.3   0.0   0.0
 2001 273    35  17.2  16.9  16.6  16.6  16.6  16.9  17.1  17.3   0.0   0.0
 2001 274    36  17.7  17.3  16.9  16.8  16.8  17.0  17.2  17.3   0.0   0.0
 2001 275    37  18.2  17.8  17.3  17.1  17.0  17.1  17.3  17.4   0.0   0.0
 2001 276    38  18.1  17.7  17.2  17.0  16.9  17.1  17.2  17.4   0.0   0.0
 2001 277    39  18.1  17.6  17.2  16.9  16.9  17.0  17.2  17.3   0.0   0.0
 2001 278    40  18.1  17.7  17.2  17.0  16.9  17.0  17.2  17.3   0.0   0.0
 2001 279    41  18.3  17.9  17.3  17.1  17.0  17.1  17.2  17.4   0.0   0.0
 2001 280    42  18.6  18.1  17.5  17.2  17.1  17.1  17.3  17.4   0.0   0.0
 2001 281    43  18.6  18.1  17.6  17.2  17.1  17.1  17.3  17.4   0.0   0.0
 2001 282    44  18.1  17.6  17.1  16.9  16.8  17.0  17.2  17.3   0.0   0.0
 2001 283    45  18.6  18.1  17.5  17.2  17.1  17.1  17.3  17.4   0.0   0.0
 2001 284    46  19.0  18.4  17.8  17.3  17.2  17.2  17.3  17.4   0.0   0.0
 2001 285    47  19.2  18.6  17.9  17.4  17.2  17.2  17.3  17.4   0.0   0.0
 2001 286    48  19.9  19.2  18.4  17.8  17.5  17.4  17.4  17.5   0.0   0.0
 2001 287    49  21.1  20.2  19.2  18.4  17.9  17.7  17.6  17.6   0.0   0.0
 2001 288    50  20.6  19.8  18.9  18.1  17.8  17.5  17.5  17.5   0.0   0.0
 2001 289    51  20.6  19.8  18.9  18.2  17.8  17.5  17.5  17.5   0.0   0.0
 2001 290    52  21.2  20.4  19.3  18.5  18.0  17.7  17.6  17.6   0.0   0.0
 2001 291    53  21.9  20.9  19.7  18.8  18.2  17.8  17.7  17.7   0.0   0.0
 2001 292    54  22.3  21.3  20.1  19.0  18.4  17.9  17.8  17.7   0.0   0.0
 2001 293    55  23.6  22.4  20.9  19.7  18.9  18.2  17.9  17.8   0.0   0.0
 2001 294    56  23.2  22.1  20.6  19.5  18.7  18.1  17.9  17.8   0.0   0.0
 2001 295    57  22.5  21.4  20.1  19.1  18.4  17.9  17.7  17.7   0.0   0.0
 2001 296    58  21.8  20.9  19.7  18.7  18.2  17.8  17.6  17.6   0.0   0.0
 2001 297    59  21.9  20.9  19.7  18.7  18.2  17.8  17.6  17.6   0.0   0.0
 2001 298    60  22.8  21.7  20.3  19.2  18.5  18.0  17.8  17.7   0.0   0.0
 2001 299    61  23.4  22.3  20.8  19.5  18.8  18.1  17.9  17.8   0.0   0.0
 2001 300    62  23.8  22.6  21.0  19.7  18.9  18.2  17.9  17.8   0.0   0.0
 2001 301    63  23.8  22.6  21.0  19.8  18.9  18.2  17.9  17.8   0.0   0.0
 2001 302    64  23.2  22.1  20.6  19.4  18.7  18.1  17.8  17.7   0.0   0.0
 2001 303    65  21.3  20.5  19.3  18.5  17.9  17.6  17.5  17.5   0.0   0.0
 2001 304    66  21.2  20.3  19.2  18.4  17.9  17.5  17.4  17.5   0.0   0.0
 2001 305    67  21.8  20.8  19.6  18.7  18.1  17.7  17.5  17.5   0.0   0.0
 2001 306    68  21.6  20.7  19.5  18.6  18.0  17.6  17.5  17.5   0.0   0.0
 2001 307    69  21.5  20.6  19.5  18.6  18.0  17.6  17.5  17.5   0.0   0.0
 2001 308    70  21.9  21.0  19.7  18.7  18.1  17.7  17.5  17.5   0.0   0.0
 2001 309    71  23.0  21.9  20.5  19.3  18.5  17.9  17.7  17.6   0.0   0.0
 2001 310    72  23.3  22.2  20.7  19.4  18.7  18.0  17.7  17.7   0.0   0.0
 2001 311    73  22.7  21.6  20.3  19.1  18.4  17.9  17.6  17.6   0.0   0.0
 2001 312    74  22.4  21.4  20.1  19.0  18.3  17.8  17.6  17.5   0.0   0.0
 2001 313    75  22.2  21.3  20.0  18.9  18.2  17.7  17.5  17.5   0.0   0.0
 2001 314    76  21.5  20.6  19.5  18.5  18.0  17.5  17.4  17.4   0.0   0.0
 2001 315    77  21.6  20.7  19.5  18.6  18.0  17.6  17.4  17.4   0.0   0.0
 2001 316    78  23.3  22.2  20.7  19.5  18.7  18.0  17.7  17.6   0.0   0.0
 2001 317    79  23.8  22.6  21.0  19.7  18.8  18.1  17.8  17.7   0.0   0.0
 2001 318    80  23.9  22.7  21.1  19.8  18.9  18.1  17.8  17.7   0.0   0.0
 2001 319    81  24.1  22.9  21.3  19.9  19.0  18.2  17.8  17.7   0.0   0.0
 2001 320    82  23.1  22.0  20.6  19.4  18.6  17.9  17.6  17.6   0.0   0.0
 2001 321    83  22.5  21.4  20.1  19.0  18.3  17.7  17.5  17.5   0.0   0.0
 2001 322    84  23.5  22.4  20.8  19.6  18.7  18.0  17.7  17.6   0.0   0.0
 2001 323    85  24.5  23.2  21.5  20.1  19.1  18.3  17.8  17.7   0.0   0.0
 2001 324    86  25.9  24.4  22.5  20.8  19.6  18.6  18.1  17.9   0.0   0.0
 2001 325    87  27.1  25.5  23.3  21.4  20.1  18.9  18.2  18.0   0.0   0.0
 2001 326    88  28.0  26.2  23.9  21.8  20.4  19.1  18.4  18.1   0.0   0.0
 2001 327    89  28.8  26.9  24.4  22.3  20.7  19.3  18.5  18.2   0.0   0.0
 2001 328    90  27.1  25.4  23.3  21.4  20.1  18.9  18.2  18.0   0.0   0.0
 2001 329    91  24.4  23.2  21.6  20.1  19.1  18.3  17.8  17.7   0.0   0.0
 2001 330    92  23.1  22.0  20.6  19.4  18.6  17.9  17.6  17.5   0.0   0.0
 2001 331    93  22.3  21.3  20.1  19.0  18.3  17.7  17.5  17.4   0.0   0.0
 2001 332    94  20.6  19.9  18.9  18.1  17.6  17.3  17.2  17.2   0.0   0.0
 2001 333    95  21.1  20.3  19.3  18.4  17.8  17.4  17.3  17.3   0.0   0.0
 2001 334    96  20.9  20.1  19.1  18.3  17.7  17.3  17.2  17.2   0.0   0.0
 2001 335    97  21.7  20.8  19.7  18.7  18.0  17.5  17.3  17.3   0.0   0.0
 2001 336    98  21.8  20.9  19.8  18.8  18.1  17.6  17.4  17.3   0.0   0.0
 2001 337    99  21.1  20.3  19.3  18.4  17.8  17.4  17.2  17.3   0.0   0.0
 2001 338   100  20.7  20.0  19.0  18.2  17.7  17.3  17.2  17.2   0.0   0.0
 2001 339   101  21.6  20.8  19.7  18.7  18.0  17.5  17.3  17.3   0.0   0.0
 2001 340   102  21.7  20.9  19.7  18.7  18.1  17.5  17.3  17.3   0.0   0.0
 2001 341   103  22.2  21.3  20.1  19.0  18.3  17.7  17.4  17.4   0.0   0.0
 2001 342   104  22.1  21.2  20.0  19.0  18.3  17.7  17.4  17.4   0.0   0.0
 2001 343   105  22.2  21.3  20.1  19.0  18.3  17.7  17.4  17.4   0.0   0.0
 2001 344   106  22.7  21.7  20.4  19.3  18.5  17.8  17.5  17.4   0.0   0.0
 2001 345   107  22.7  21.7  20.4  19.3  18.5  17.8  17.5  17.4   0.0   0.0
 2001 346   108  22.7  21.8  20.5  19.3  18.5  17.8  17.5  17.4   0.0   0.0
 2001 347   109  24.2  23.0  21.5  20.0  19.1  18.2  17.7  17.6   0.0   0.0
 2001 348   110  25.2  23.9  22.1  20.6  19.5  18.4  17.9  17.7   0.0   0.0
 2001 349   111  25.5  24.2  22.4  20.8  19.6  18.5  17.9  17.7   0.0   0.0
 2001 350   112  25.7  24.4  22.5  20.9  19.7  18.6  18.0  17.8   0.0   0.0
 2001 351   113  25.8  24.4  22.6  20.9  19.7  18.6  18.0  17.8   0.0   0.0
 2001 352   114  25.9  24.5  22.7  21.0  19.8  18.6  18.0  17.8   0.0   0.0
 2001 353   115  26.2  24.8  22.9  21.2  19.9  18.7  18.1  17.8   0.0   0.0
 2001 354   116  27.0  25.5  23.4  21.5  20.2  18.9  18.2  17.9   0.0   0.0
 2001 355   117  26.1  24.7  22.8  21.1  19.8  18.7  18.0  17.8   0.0   0.0
 2001 356   118  25.3  24.0  22.3  20.7  19.6  18.5  17.9  17.7   0.0   0.0
 2001 357   119  25.0  23.8  22.2  20.6  19.5  18.5  17.9  17.7   0.0   0.0
 2001 358   120  24.8  23.6  22.0  20.5  19.4  18.4  17.8  17.6   0.0   0.0
 2001 359   121  24.5  23.4  21.8  20.4  19.3  18.3  17.8  17.6   0.0   0.0
 2001 360   122  26.4  25.0  23.1  21.3  20.0  18.8  18.1  17.8   0.0   0.0
 2001 361   123  27.8  26.3  24.1  22.1  20.6  19.2  18.3  18.0   0.0   0.0
 2001 362   124  28.7  27.0  24.6  22.5  20.9  19.4  18.4  18.1   0.0   0.0
 2001 363   125  29.2  27.5  25.0  22.8  21.1  19.5  18.5  18.1   0.0   0.0
 2001 364   126  29.7  27.9  25.4  23.1  21.4  19.7  18.6  18.2   0.0   0.0
 2001 365   127  29.7  27.9  25.4  23.1  21.4  19.7  18.6  18.2   0.0   0.0
 2002 001   128  29.1  27.4  25.0  22.8  21.1  19.5  18.5  18.1   0.0   0.0
 2002 002   129  28.6  26.9  24.6  22.5  20.9  19.4  18.5  18.1   0.0   0.0
 2002 003   130  28.2  26.6  24.3  22.3  20.8  19.3  18.4  18.0   0.0   0.0
 2002 004   131  27.5  26.0  23.9  22.0  20.5  19.1  18.3  18.0   0.0   0.0
 2002 005   132  26.0  24.7  22.9  21.2  19.9  18.7  18.0  17.8   0.0   0.0
 2002 006   133  25.1  24.0  22.3  20.8  19.6  18.5  17.9  17.7   0.0   0.0
 2002 007   134  24.3  23.3  21.8  20.4  19.3  18.4  17.8  17.6   0.0   0.0
 2002 008   135  24.5  23.4  21.9  20.4  19.4  18.4  17.8  17.6   0.0   0.0
 2002 009   136  24.4  23.3  21.8  20.4  19.4  18.4  17.8  17.6   0.0   0.0
 2002 010   137  25.6  24.4  22.7  21.1  19.9  18.7  18.0  17.7   0.0   0.0
 2002 011   138  26.7  25.4  23.5  21.6  20.3  19.0  18.2  17.9   0.0   0.0
 2002 012   139  28.3  26.7  24.5  22.5  20.9  19.4  18.4  18.0   0.0   0.0
 2002 013   140  29.1  27.4  25.1  22.9  21.2  19.6  18.6  18.1   0.0   0.0
 2002 014   141  28.4  26.8  24.6  22.6  21.0  19.4  18.5  18.1   0.0   0.0
 2002 015   142  27.3  25.9  23.9  22.0  20.6  19.2  18.3  18.0   0.0   0.0
 2002 016   143  26.2  25.0  23.2  21.5  20.2  18.9  18.1  17.8   0.0   0.0
 2002 017   144  24.9  23.8  22.3  20.8  19.7  18.6  17.9  17.7   0.0   0.0
 2002 018   145  23.4  22.6  21.3  20.1  19.1  18.2  17.7  17.5   0.0   0.0
 2002 019   146  24.4  23.4  22.0  20.6  19.5  18.5  17.9  17.6   0.0   0.0
 2002 020   147  26.3  25.1  23.3  21.6  20.3  19.0  18.2  17.9   0.0   0.0
 2002 021   148  27.2  25.8  23.9  22.0  20.6  19.2  18.3  18.0   0.0   0.0
 2002 022   149  28.5  27.0  24.8  22.7  21.1  19.5  18.5  18.1   0.0   0.0
 2002 023   150  29.9  28.2  25.7  23.4  21.7  19.9  18.7  18.3   0.0   0.0
 2002 024   151  29.9  28.2  25.8  23.5  21.7  19.9  18.8  18.3   0.0   0.0
 2002 025   152  29.1  27.5  25.3  23.1  21.5  19.8  18.7  18.2   0.0   0.0
 2002 026   153  28.4  27.0  24.8  22.8  21.2  19.6  18.6  18.2   0.0   0.0
 2002 027   154  27.3  26.0  24.1  22.2  20.8  19.4  18.4  18.0   0.0   0.0
 2002 028   155  27.0  25.8  23.9  22.1  20.7  19.3  18.4  18.0   0.0   0.0
 2002 029   156  27.9  26.5  24.5  22.6  21.1  19.5  18.5  18.1   0.0   0.0
 2002 030   157  28.2  26.8  24.7  22.7  21.2  19.6  18.6  18.1   0.0   0.0
 2002 031   158  28.7  27.2  25.1  23.1  21.5  19.8  18.7  18.2   0.0   0.0
 2002 032   159  28.6  27.2  25.1  23.1  21.5  19.8  18.7  18.2   0.0   0.0
 2002 033   160  27.5  26.2  24.3  22.5  21.0  19.5  18.5  18.1   0.0   0.0
 2002 034   161  25.9  24.8  23.2  21.6  20.4  19.1  18.3  17.9   0.0   0.0
 2002 035   162  25.1  24.1  22.7  21.3  20.1  18.9  18.2  17.8   0.0   0.0
 2002 036   163  24.9  24.0  22.6  21.2  20.1  18.9  18.1  17.8   0.0   0.0

*DSSAT Cropping System Model Ver. 4.0.2.000               Aug 29, 2016; 09:16:37

*RUN   3        : UYSB                    
 MODEL          : CRGRO040 - Soybean         
 EXPERIMENT     : UYSB0405 SB    late to create DSS                             
 TREATMENT  1   : UYSB                    

@YEAR DOY   DAS  TS1D  TS2D  TS3D  TS4D  TS5D  TS6D  TS7D  TS8D  TS9D  TS10
 2002 238     0  29.2  27.4  25.1  23.2  21.8  20.4  19.5  19.0   0.0   0.0
 2002 239     1  28.5  26.8  24.6  22.8  21.5  20.2  19.4  18.9   0.0   0.0
 2002 240     2  27.8  26.2  24.1  22.4  21.2  20.0  19.2  18.8   0.0   0.0
 2002 241     3  25.4  24.1  22.5  21.2  20.3  19.4  18.9  18.5   0.0   0.0
 2002 242     4  22.3  21.4  20.4  19.6  19.1  18.6  18.4  18.2   0.0   0.0
 2002 243     5  18.6  18.2  17.8  17.7  17.6  17.7  17.8  17.8   0.0   0.0
 2002 244     6  15.3  15.4  15.6  16.0  16.4  16.9  17.2  17.4   0.0   0.0
 2002 245     7  12.6  13.0  13.7  14.6  15.3  16.2  16.8  17.1   0.0   0.0
 2002 246     8  12.0  12.5  13.3  14.3  15.1  16.0  16.7  17.0   0.0   0.0
 2002 247     9  12.9  13.2  13.9  14.7  15.4  16.2  16.8  17.1   0.0   0.0
 2002 248    10  14.6  14.8  15.1  15.6  16.0  16.6  17.1  17.3   0.0   0.0
 2002 249    11  15.6  15.6  15.7  16.0  16.4  16.9  17.2  17.4   0.0   0.0
 2002 250    12  16.0  16.0  16.0  16.2  16.5  16.9  17.3  17.4   0.0   0.0
 2002 251    13  16.1  16.0  16.1  16.3  16.5  16.9  17.3  17.4   0.0   0.0
 2002 252    14  16.0  15.9  16.0  16.2  16.5  16.9  17.2  17.4   0.0   0.0
 2002 253    15  15.1  15.1  15.3  15.7  16.1  16.7  17.1  17.3   0.0   0.0
 2002 254    16  15.5  15.5  15.6  15.9  16.3  16.7  17.1  17.3   0.0   0.0
 2002 255    17  16.0  15.9  16.0  16.1  16.4  16.8  17.2  17.3   0.0   0.0
 2002 256    18  16.5  16.3  16.3  16.4  16.6  16.9  17.2  17.4   0.0   0.0
 2002 257    19  16.5  16.3  16.2  16.4  16.6  16.9  17.2  17.4   0.0   0.0
 2002 258    20  16.5  16.3  16.2  16.3  16.6  16.9  17.2  17.4   0.0   0.0
 2002 259    21  16.4  16.2  16.2  16.3  16.5  16.9  17.2  17.3   0.0   0.0
 2002 260    22  16.6  16.5  16.3  16.4  16.6  16.9  17.2  17.4   0.0   0.0
 2002 261    23  16.8  16.6  16.4  16.5  16.6  16.9  17.2  17.4   0.0   0.0
 2002 262    24  16.8  16.5  16.4  16.4  16.6  16.9  17.2  17.4   0.0   0.0
 2002 263    25  16.6  16.4  16.2  16.3  16.5  16.8  17.2  17.3   0.0   0.0
 2002 264    26  16.6  16.4  16.3  16.3  16.5  16.8  17.2  17.3   0.0   0.0
 2002 265    27  16.9  16.7  16.5  16.5  16.6  16.9  17.2  17.3   0.0   0.0
 2002 266    28  17.0  16.8  16.5  16.5  16.6  16.9  17.2  17.3   0.0   0.0
 2002 267    29  17.5  17.2  16.9  16.8  16.8  17.0  17.3  17.4   0.0   0.0
 2002 268    30  19.1  18.6  18.0  17.6  17.4  17.4  17.5  17.6   0.0   0.0
 2002 269    31  20.5  19.7  18.9  18.3  17.9  17.8  17.7  17.7   0.0   0.0
 2002 270    32  21.5  20.6  19.5  18.8  18.3  18.0  17.9  17.8   0.0   0.0
 2002 271    33  23.2  22.1  20.7  19.6  19.0  18.4  18.1  18.0   0.0   0.0
 2002 272    34  22.8  21.8  20.5  19.5  18.8  18.3  18.1  18.0   0.0   0.0
 2002 273    35  22.0  21.1  19.9  19.0  18.5  18.1  17.9  17.9   0.0   0.0
 2002 274    36  21.4  20.5  19.5  18.7  18.2  17.9  17.8  17.8   0.0   0.0
 2002 275    37  21.0  20.2  19.2  18.5  18.1  17.8  17.7  17.7   0.0   0.0
 2002 276    38  20.0  19.4  18.5  18.0  17.7  17.5  17.6  17.6   0.0   0.0
 2002 277    39  21.1  20.3  19.3  18.5  18.1  17.8  17.7  17.7   0.0   0.0
 2002 278    40  21.8  20.9  19.8  18.9  18.4  18.0  17.8  17.8   0.0   0.0
 2002 279    41  23.1  22.0  20.6  19.5  18.8  18.3  18.0  17.9   0.0   0.0
 2002 280    42  22.5  21.5  20.2  19.2  18.6  18.1  17.9  17.8   0.0   0.0
 2002 281    43  22.0  21.0  19.9  18.9  18.4  18.0  17.8  17.8   0.0   0.0
 2002 282    44  21.1  20.3  19.2  18.5  18.0  17.7  17.7  17.7   0.0   0.0
 2002 283    45  20.3  19.6  18.7  18.1  17.7  17.5  17.5  17.6   0.0   0.0
 2002 284    46  19.5  18.9  18.1  17.6  17.4  17.3  17.4  17.4   0.0   0.0
 2002 285    47  20.9  20.1  19.1  18.4  17.9  17.7  17.6  17.6   0.0   0.0
 2002 286    48  22.8  21.7  20.4  19.3  18.6  18.1  17.9  17.8   0.0   0.0
 2002 287    49  25.0  23.6  21.9  20.4  19.5  18.7  18.2  18.1   0.0   0.0
 2002 288    50  26.7  25.2  23.1  21.3  20.2  19.1  18.5  18.2   0.0   0.0
 2002 289    51  26.4  24.8  22.8  21.1  20.0  19.0  18.4  18.2   0.0   0.0
 2002 290    52  25.1  23.8  22.0  20.5  19.5  18.7  18.2  18.0   0.0   0.0
 2002 291    53  24.2  23.0  21.3  20.0  19.1  18.4  18.1  17.9   0.0   0.0
 2002 292    54  22.9  21.8  20.4  19.3  18.6  18.1  17.8  17.8   0.0   0.0
 2002 293    55  21.8  20.9  19.7  18.8  18.2  17.8  17.7  17.6   0.0   0.0
 2002 294    56  20.5  19.8  18.8  18.1  17.7  17.5  17.4  17.5   0.0   0.0
 2002 295    57  19.9  19.2  18.4  17.8  17.4  17.3  17.3  17.4   0.0   0.0
 2002 296    58  19.3  18.7  18.0  17.4  17.2  17.1  17.2  17.3   0.0   0.0
 2002 297    59  19.7  19.0  18.2  17.6  17.3  17.2  17.3  17.4   0.0   0.0
 2002 298    60  19.5  18.9  18.1  17.5  17.3  17.2  17.2  17.3   0.0   0.0
 2002 299    61  22.0  21.0  19.8  18.8  18.2  17.8  17.6  17.6   0.0   0.0
 2002 300    62  23.2  22.0  20.6  19.4  18.7  18.1  17.8  17.7   0.0   0.0
 2002 301    63  24.0  22.7  21.1  19.8  19.0  18.3  17.9  17.8   0.0   0.0
 2002 302    64  22.5  21.5  20.2  19.1  18.4  17.9  17.7  17.6   0.0   0.0
 2002 303    65  21.8  20.8  19.6  18.7  18.1  17.7  17.6  17.5   0.0   0.0
 2002 304    66  20.9  20.1  19.1  18.3  17.8  17.5  17.4  17.4   0.0   0.0
 2002 305    67  20.7  19.9  18.9  18.1  17.7  17.4  17.4  17.4   0.0   0.0
 2002 306    68  20.5  19.7  18.8  18.0  17.6  17.3  17.3  17.4   0.0   0.0
 2002 307    69  20.4  19.6  18.7  18.0  17.5  17.3  17.3  17.3   0.0   0.0
 2002 308    70  20.0  19.3  18.4  17.8  17.4  17.2  17.2  17.3   0.0   0.0
 2002 309    71  19.3  18.7  17.9  17.4  17.1  17.0  17.1  17.2   0.0   0.0
 2002 310    72  19.0  18.4  17.7  17.2  17.0  16.9  17.0  17.2   0.0   0.0
 2002 311    73  19.1  18.5  17.8  17.3  17.0  16.9  17.1  17.2   0.0   0.0
 2002 312    74  21.0  20.2  19.1  18.3  17.8  17.4  17.4  17.4   0.0   0.0
 2002 313    75  21.9  21.0  19.8  18.8  18.1  17.7  17.5  17.5   0.0   0.0
 2002 314    76  21.7  20.8  19.6  18.6  18.0  17.6  17.5  17.4   0.0   0.0
 2002 315    77  21.5  20.6  19.5  18.5  18.0  17.5  17.4  17.4   0.0   0.0
 2002 316    78  21.8  20.9  19.7  18.7  18.1  17.6  17.5  17.4   0.0   0.0
 2002 317    79  22.2  21.3  20.0  18.9  18.2  17.7  17.5  17.5   0.0   0.0
 2002 318    80  23.9  22.7  21.1  19.7  18.9  18.1  17.8  17.7   0.0   0.0
 2002 319    81  25.3  23.9  22.0  20.5  19.4  18.5  18.0  17.8   0.0   0.0
 2002 320    82  27.1  25.5  23.3  21.4  20.1  18.9  18.3  18.0   0.0   0.0
 2002 321    83  27.1  25.5  23.3  21.4  20.1  18.9  18.3  18.0   0.0   0.0
 2002 322    84  26.9  25.3  23.1  21.3  20.0  18.9  18.2  18.0   0.0   0.0
 2002 323    85  26.4  24.8  22.8  21.0  19.8  18.7  18.1  17.9   0.0   0.0
 2002 324    86  26.2  24.7  22.7  21.0  19.8  18.7  18.1  17.9   0.0   0.0
 2002 325    87  25.0  23.7  21.9  20.4  19.3  18.4  17.9  17.8   0.0   0.0
 2002 326    88  24.6  23.3  21.6  20.1  19.2  18.3  17.9  17.7   0.0   0.0
 2002 327    89  24.9  23.6  21.8  20.3  19.3  18.4  17.9  17.7   0.0   0.0
 2002 328    90  25.3  23.9  22.1  20.5  19.4  18.5  18.0  17.8   0.0   0.0
 2002 329    91  25.4  24.0  22.2  20.6  19.5  18.5  18.0  17.8   0.0   0.0
 2002 330    92  26.1  24.7  22.7  21.0  19.8  18.7  18.1  17.9   0.0   0.0
 2002 331    93  26.8  25.2  23.1  21.3  20.0  18.8  18.2  17.9   0.0   0.0
 2002 332    94  24.7  23.4  21.7  20.2  19.2  18.3  17.8  17.7   0.0   0.0
 2002 333    95  23.4  22.3  20.9  19.6  18.7  18.0  17.6  17.5   0.0   0.0
 2002 334    96  24.1  22.9  21.3  19.9  19.0  18.1  17.7  17.6   0.0   0.0
 2002 335    97  22.7  21.7  20.4  19.3  18.5  17.8  17.5  17.5   0.0   0.0
 2002 336    98  22.0  21.1  19.9  18.9  18.2  17.6  17.4  17.4   0.0   0.0
 2002 337    99  23.2  22.1  20.7  19.5  18.7  17.9  17.6  17.5   0.0   0.0
 2002 338   100  23.0  22.0  20.6  19.4  18.6  17.9  17.6  17.5   0.0   0.0
 2002 339   101  22.8  21.8  20.5  19.3  18.5  17.8  17.5  17.4   0.0   0.0
 2002 340   102  23.7  22.6  21.1  19.8  18.9  18.1  17.7  17.5   0.0   0.0
 2002 341   103  23.6  22.5  21.1  19.8  18.9  18.0  17.7  17.5   0.0   0.0
 2002 342   104  23.0  22.0  20.7  19.4  18.6  17.9  17.6  17.5   0.0   0.0
 2002 343   105  23.7  22.6  21.1  19.8  18.9  18.1  17.7  17.5   0.0   0.0
 2002 344   106  22.9  21.9  20.6  19.4  18.6  17.9  17.5  17.4   0.0   0.0
 2002 345   107  23.3  22.3  20.9  19.6  18.8  18.0  17.6  17.5   0.0   0.0
 2002 346   108  23.7  22.7  21.2  19.8  18.9  18.1  17.7  17.5   0.0   0.0
 2002 347   109  24.1  23.0  21.4  20.0  19.1  18.2  17.7  17.6   0.0   0.0
 2002 348   110  24.8  23.5  21.9  20.4  19.3  18.3  17.8  17.6   0.0   0.0
 2002 349   111  26.0  24.6  22.7  21.0  19.8  18.7  18.0  17.8   0.0   0.0
 2002 350   112  26.2  24.8  22.9  21.1  19.9  18.7  18.0  17.8   0.0   0.0
 2002 351   113  26.3  24.9  23.0  21.2  19.9  18.7  18.1  17.8   0.0   0.0
 2002 352   114  27.0  25.5  23.4  21.5  20.2  18.9  18.2  17.9   0.0   0.0
 2002 353   115  25.6  24.3  22.5  20.9  19.7  18.6  18.0  17.7   0.0   0.0
 2002 354   116  24.7  23.6  21.9  20.4  19.4  18.4  17.8  17.6   0.0   0.0
 2002 355   117  24.5  23.4  21.8  20.3  19.3  18.3  17.8  17.6   0.0   0.0
 2002 356   118  24.6  23.5  21.9  20.4  19.3  18.3  17.8  17.6   0.0   0.0
 2002 357   119  22.8  21.9  20.6  19.5  18.7  17.9  17.5  17.4   0.0   0.0
 2002 358   120  23.1  22.2  20.9  19.7  18.8  18.0  17.6  17.5   0.0   0.0
 2002 359   121  23.6  22.6  21.2  19.9  19.0  18.1  17.7  17.5   0.0   0.0
 2002 360   122  24.2  23.1  21.6  20.2  19.2  18.3  17.8  17.6   0.0   0.0
 2002 361   123  25.5  24.3  22.5  20.9  19.7  18.6  18.0  17.7   0.0   0.0
 2002 362   124  27.1  25.7  23.6  21.8  20.4  19.0  18.2  17.9   0.0   0.0
 2002 363   125  28.0  26.5  24.3  22.2  20.7  19.3  18.4  18.0   0.0   0.0
 2002 364   126  28.0  26.5  24.3  22.2  20.7  19.3  18.4  18.0   0.0   0.0
 2002 365   127  26.9  25.5  23.5  21.7  20.3  19.0  18.2  17.9   0.0   0.0
 2003 001   128  25.3  24.1  22.4  20.8  19.7  18.6  17.9  17.7   0.0   0.0
 2003 002   129  25.1  23.9  22.2  20.7  19.6  18.5  17.9  17.7   0.0   0.0
 2003 003   130  24.5  23.4  21.8  20.4  19.4  18.4  17.8  17.6   0.0   0.0
 2003 004   131  24.9  23.7  22.1  20.6  19.5  18.5  17.9  17.7   0.0   0.0
 2003 005   132  26.2  24.9  23.0  21.3  20.0  18.8  18.1  17.8   0.0   0.0
 2003 006   133  26.6  25.3  23.3  21.5  20.2  18.9  18.2  17.9   0.0   0.0
 2003 007   134  27.4  25.9  23.9  21.9  20.5  19.1  18.3  17.9   0.0   0.0
 2003 008   135  28.6  27.0  24.7  22.6  21.0  19.4  18.5  18.1   0.0   0.0
 2003 009   136  28.8  27.1  24.9  22.7  21.1  19.5  18.5  18.1   0.0   0.0
 2003 010   137  28.0  26.5  24.4  22.3  20.8  19.3  18.4  18.0   0.0   0.0
 2003 011   138  28.3  26.8  24.6  22.5  21.0  19.4  18.5  18.1   0.0   0.0
 2003 012   139  28.4  26.8  24.6  22.5  21.0  19.4  18.5  18.1   0.0   0.0
 2003 013   140  28.2  26.7  24.5  22.5  20.9  19.4  18.5  18.1   0.0   0.0
 2003 014   141  28.4  26.9  24.7  22.6  21.0  19.5  18.5  18.1   0.0   0.0
 2003 015   142  29.3  27.6  25.3  23.0  21.4  19.7  18.6  18.2   0.0   0.0
 2003 016   143  29.8  28.0  25.6  23.3  21.6  19.8  18.7  18.2   0.0   0.0
 2003 017   144  30.4  28.6  26.0  23.6  21.8  20.0  18.8  18.3   0.0   0.0
 2003 018   145  30.1  28.4  25.9  23.5  21.7  19.9  18.8  18.3   0.0   0.0
 2003 019   146  30.1  28.3  25.8  23.5  21.7  19.9  18.8  18.3   0.0   0.0
 2003 020   147  29.4  27.7  25.4  23.2  21.5  19.8  18.7  18.2   0.0   0.0
 2003 021   148  29.0  27.4  25.2  23.0  21.4  19.7  18.6  18.2   0.0   0.0
 2003 022   149  28.2  26.8  24.6  22.6  21.1  19.5  18.5  18.1   0.0   0.0
 2003 023   150  28.0  26.5  24.5  22.5  21.0  19.5  18.5  18.1   0.0   0.0
 2003 024   151  27.4  26.0  24.1  22.2  20.8  19.3  18.4  18.0   0.0   0.0
 2003 025   152  27.7  26.3  24.3  22.4  20.9  19.4  18.4  18.0   0.0   0.0
 2003 026   153  27.7  26.3  24.3  22.4  20.9  19.4  18.5  18.1   0.0   0.0
 2003 027   154  27.8  26.4  24.4  22.5  21.0  19.4  18.5  18.1   0.0   0.0
 2003 028   155  28.7  27.2  25.0  22.9  21.3  19.7  18.6  18.2   0.0   0.0
 2003 029   156  29.5  27.9  25.6  23.4  21.7  19.9  18.8  18.3   0.0   0.0
 2003 030   157  30.6  28.9  26.4  23.9  22.1  20.2  18.9  18.4   0.0   0.0

*DSSAT Cropping System Model Ver. 4.0.2.000               Aug 29, 2016; 09:16:37

*RUN   4        : UYSB                    
 MODEL          : CRGRO040 - Soybean         
 EXPERIMENT     : UYSB0405 SB    late to create DSS                             
 TREATMENT  1   : UYSB                    

@YEAR DOY   DAS  TS1D  TS2D  TS3D  TS4D  TS5D  TS6D  TS7D  TS8D  TS9D  TS10
 2003 238     0   9.1  10.0  11.4  12.9  14.1  15.4  16.3  16.8   0.0   0.0
 2003 239     1   9.0  10.0  11.4  12.9  14.1  15.4  16.3  16.7   0.0   0.0
 2003 240     2   9.4  10.3  11.7  13.1  14.2  15.5  16.4  16.8   0.0   0.0
 2003 241     3   9.9  10.7  12.0  13.3  14.4  15.6  16.4  16.8   0.0   0.0
 2003 242     4  10.7  11.4  12.4  13.6  14.6  15.7  16.5  16.9   0.0   0.0
 2003 243     5  11.4  12.0  13.0  14.0  14.9  15.9  16.6  17.0   0.0   0.0
 2003 244     6  13.2  13.5  14.1  14.9  15.5  16.3  16.9  17.1   0.0   0.0
 2003 245     7  14.6  14.7  15.1  15.6  16.0  16.7  17.1  17.3   0.0   0.0
 2003 246     8  16.7  16.5  16.5  16.6  16.8  17.2  17.4  17.5   0.0   0.0
 2003 247     9  18.2  17.9  17.6  17.4  17.4  17.5  17.7  17.7   0.0   0.0
 2003 248    10  20.1  19.5  18.8  18.4  18.1  18.0  17.9  17.9   0.0   0.0
 2003 249    11  22.5  21.6  20.5  19.6  19.0  18.6  18.3  18.2   0.0   0.0
 2003 250    12  23.1  22.1  20.8  19.8  19.2  18.7  18.4  18.2   0.0   0.0
 2003 251    13  21.5  20.7  19.8  19.0  18.6  18.3  18.1  18.0   0.0   0.0
 2003 252    14  20.0  19.4  18.7  18.2  18.0  17.9  17.9  17.8   0.0   0.0
 2003 253    15  17.9  17.6  17.3  17.2  17.2  17.4  17.5  17.6   0.0   0.0
 2003 254    16  15.2  15.2  15.4  15.8  16.1  16.7  17.1  17.3   0.0   0.0
 2003 255    17  14.9  15.0  15.2  15.6  16.0  16.6  17.0  17.2   0.0   0.0
 2003 256    18  14.9  14.9  15.2  15.6  16.0  16.5  17.0  17.2   0.0   0.0
 2003 257    19  14.9  15.0  15.2  15.5  16.0  16.5  17.0  17.2   0.0   0.0
 2003 258    20  15.1  15.1  15.3  15.6  16.0  16.6  17.0  17.2   0.0   0.0
 2003 259    21  14.8  14.8  15.1  15.5  15.9  16.5  16.9  17.2   0.0   0.0
 2003 260    22  14.0  14.1  14.5  15.0  15.6  16.2  16.8  17.1   0.0   0.0
 2003 261    23  15.0  15.1  15.2  15.6  16.0  16.5  17.0  17.2   0.0   0.0
 2003 262    24  16.7  16.5  16.4  16.4  16.6  16.9  17.2  17.4   0.0   0.0
 2003 263    25  17.4  17.1  16.8  16.8  16.8  17.1  17.3  17.4   0.0   0.0
 2003 264    26  18.4  18.0  17.5  17.3  17.2  17.3  17.5  17.5   0.0   0.0
 2003 265    27  19.8  19.2  18.4  18.0  17.7  17.6  17.7  17.7   0.0   0.0
 2003 266    28  19.7  19.1  18.4  17.9  17.7  17.6  17.6  17.7   0.0   0.0
 2003 267    29  19.1  18.6  18.0  17.6  17.5  17.4  17.5  17.6   0.0   0.0
 2003 268    30  19.1  18.5  17.9  17.5  17.4  17.4  17.5  17.6   0.0   0.0
 2003 269    31  18.6  18.1  17.6  17.3  17.2  17.3  17.4  17.5   0.0   0.0
 2003 270    32  18.4  18.0  17.5  17.2  17.1  17.2  17.4  17.5   0.0   0.0
 2003 271    33  17.7  17.3  17.0  16.8  16.8  17.0  17.3  17.4   0.0   0.0
 2003 272    34  17.4  17.0  16.7  16.6  16.7  16.9  17.2  17.3   0.0   0.0
 2003 273    35  17.9  17.5  17.1  16.9  16.9  17.1  17.3  17.4   0.0   0.0
 2003 274    36  19.3  18.7  18.1  17.6  17.4  17.4  17.5  17.5   0.0   0.0
 2003 275    37  19.3  18.7  18.1  17.6  17.4  17.4  17.5  17.5   0.0   0.0
 2003 276    38  20.0  19.3  18.5  18.0  17.7  17.5  17.6  17.6   0.0   0.0
 2003 277    39  20.4  19.7  18.8  18.1  17.8  17.6  17.6  17.6   0.0   0.0
 2003 278    40  20.6  19.9  18.9  18.3  17.9  17.7  17.6  17.6   0.0   0.0
 2003 279    41  19.8  19.1  18.3  17.8  17.5  17.4  17.5  17.5   0.0   0.0
 2003 280    42  20.0  19.3  18.5  17.9  17.6  17.5  17.5  17.6   0.0   0.0
 2003 281    43  21.0  20.2  19.2  18.4  18.0  17.7  17.7  17.7   0.0   0.0
 2003 282    44  21.8  20.9  19.7  18.8  18.3  17.9  17.8  17.7   0.0   0.0
 2003 283    45  20.2  19.5  18.6  18.0  17.7  17.5  17.5  17.5   0.0   0.0
 2003 284    46  19.2  18.6  17.9  17.5  17.3  17.2  17.3  17.4   0.0   0.0
 2003 285    47  17.8  17.4  17.0  16.7  16.7  16.9  17.1  17.2   0.0   0.0
 2003 286    48  16.8  16.5  16.2  16.2  16.3  16.6  16.9  17.1   0.0   0.0
 2003 287    49  16.9  16.6  16.3  16.2  16.3  16.6  16.9  17.1   0.0   0.0
 2003 288    50  19.2  18.6  17.9  17.4  17.2  17.2  17.3  17.4   0.0   0.0
 2003 289    51  22.0  21.1  19.8  18.9  18.3  17.9  17.7  17.7   0.0   0.0
 2003 290    52  24.6  23.3  21.6  20.2  19.3  18.5  18.1  18.0   0.0   0.0
 2003 291    53  26.9  25.3  23.2  21.4  20.2  19.1  18.5  18.2   0.0   0.0
 2003 292    54  27.0  25.4  23.3  21.4  20.2  19.1  18.5  18.2   0.0   0.0
 2003 293    55  25.9  24.4  22.5  20.9  19.8  18.8  18.3  18.1   0.0   0.0
 2003 294    56  24.6  23.3  21.6  20.2  19.3  18.5  18.1  17.9   0.0   0.0
 2003 295    57  23.5  22.3  20.8  19.6  18.8  18.2  17.9  17.8   0.0   0.0
 2003 296    58  22.6  21.6  20.2  19.1  18.5  18.0  17.8  17.7   0.0   0.0
 2003 297    59  23.8  22.6  21.1  19.8  18.9  18.3  17.9  17.8   0.0   0.0
 2003 298    60  24.8  23.4  21.7  20.2  19.3  18.5  18.1  17.9   0.0   0.0
 2003 299    61  25.2  23.8  22.0  20.5  19.5  18.6  18.1  18.0   0.0   0.0
 2003 300    62  24.7  23.4  21.6  20.2  19.3  18.5  18.0  17.9   0.0   0.0
 2003 301    63  24.1  22.8  21.2  19.9  19.0  18.3  17.9  17.8   0.0   0.0
 2003 302    64  23.2  22.0  20.6  19.4  18.6  18.0  17.8  17.7   0.0   0.0
 2003 303    65  24.3  23.0  21.4  20.0  19.1  18.3  18.0  17.8   0.0   0.0
 2003 304    66  23.2  22.1  20.6  19.4  18.7  18.0  17.8  17.7   0.0   0.0
 2003 305    67  22.8  21.7  20.3  19.2  18.5  17.9  17.7  17.6   0.0   0.0
 2003 306    68  22.1  21.1  19.8  18.8  18.2  17.7  17.6  17.5   0.0   0.0
 2003 307    69  21.1  20.3  19.2  18.3  17.8  17.5  17.4  17.4   0.0   0.0
 2003 308    70  19.4  18.8  18.0  17.5  17.2  17.1  17.1  17.2   0.0   0.0
 2003 309    71  20.3  19.6  18.6  17.9  17.5  17.3  17.3  17.3   0.0   0.0
 2003 310    72  21.7  20.8  19.6  18.6  18.0  17.6  17.5  17.5   0.0   0.0
 2003 311    73  23.2  22.1  20.6  19.4  18.6  18.0  17.7  17.6   0.0   0.0
 2003 312    74  24.6  23.3  21.6  20.1  19.2  18.3  17.9  17.8   0.0   0.0
 2003 313    75  25.9  24.4  22.4  20.8  19.6  18.6  18.1  17.9   0.0   0.0
 2003 314    76  27.0  25.4  23.2  21.3  20.1  18.9  18.3  18.0   0.0   0.0
 2003 315    77  28.3  26.5  24.1  22.0  20.5  19.2  18.5  18.2   0.0   0.0
 2003 316    78  27.0  25.4  23.2  21.4  20.1  18.9  18.3  18.1   0.0   0.0
 2003 317    79  25.3  23.9  22.1  20.5  19.4  18.5  18.0  17.8   0.0   0.0
 2003 318    80  24.1  22.9  21.3  19.9  19.0  18.2  17.8  17.7   0.0   0.0
 2003 319    81  23.8  22.6  21.0  19.7  18.8  18.1  17.8  17.7   0.0   0.0
 2003 320    82  21.7  20.8  19.7  18.7  18.0  17.6  17.4  17.4   0.0   0.0
 2003 321    83  22.6  21.6  20.2  19.1  18.4  17.8  17.6  17.5   0.0   0.0
 2003 322    84  22.4  21.4  20.1  19.0  18.3  17.7  17.5  17.5   0.0   0.0
 2003 323    85  22.8  21.8  20.4  19.2  18.5  17.9  17.6  17.5   0.0   0.0
 2003 324    86  21.4  20.5  19.4  18.5  17.9  17.5  17.3  17.3   0.0   0.0
 2003 325    87  22.0  21.1  19.9  18.8  18.2  17.6  17.4  17.4   0.0   0.0
 2003 326    88  23.4  22.3  20.8  19.5  18.7  18.0  17.7  17.6   0.0   0.0
 2003 327    89  26.4  24.9  22.8  21.1  19.8  18.7  18.1  17.9   0.0   0.0
 2003 328    90  25.5  24.1  22.3  20.6  19.5  18.5  18.0  17.8   0.0   0.0
 2003 329    91  26.7  25.1  23.1  21.2  20.0  18.8  18.2  17.9   0.0   0.0
 2003 330    92  27.2  25.6  23.4  21.5  20.2  18.9  18.3  18.0   0.0   0.0
 2003 331    93  26.6  25.1  23.0  21.2  20.0  18.8  18.2  17.9   0.0   0.0
 2003 332    94  25.2  23.9  22.1  20.5  19.4  18.4  17.9  17.8   0.0   0.0
 2003 333    95  26.9  25.3  23.2  21.4  20.1  18.9  18.2  17.9   0.0   0.0
 2003 334    96  26.0  24.6  22.6  20.9  19.7  18.6  18.0  17.8   0.0   0.0
 2003 335    97  25.6  24.2  22.3  20.7  19.6  18.5  18.0  17.8   0.0   0.0
 2003 336    98  24.8  23.5  21.8  20.3  19.2  18.3  17.8  17.7   0.0   0.0
 2003 337    99  25.1  23.8  22.0  20.5  19.4  18.4  17.9  17.7   0.0   0.0
 2003 338   100  24.7  23.4  21.7  20.2  19.2  18.3  17.8  17.7   0.0   0.0
 2003 339   101  25.3  23.9  22.1  20.6  19.4  18.4  17.9  17.7   0.0   0.0
 2003 340   102  25.2  23.9  22.1  20.5  19.4  18.4  17.9  17.7   0.0   0.0
 2003 341   103  25.4  24.0  22.2  20.6  19.5  18.5  17.9  17.7   0.0   0.0
 2003 342   104  24.3  23.1  21.5  20.1  19.1  18.2  17.8  17.6   0.0   0.0
 2003 343   105  23.5  22.5  21.0  19.7  18.8  18.0  17.6  17.5   0.0   0.0
 2003 344   106  23.9  22.8  21.2  19.9  18.9  18.1  17.7  17.6   0.0   0.0
 2003 345   107  23.9  22.8  21.3  19.9  19.0  18.1  17.7  17.6   0.0   0.0
 2003 346   108  23.6  22.5  21.0  19.7  18.8  18.0  17.6  17.5   0.0   0.0
 2003 347   109  23.8  22.7  21.2  19.8  18.9  18.1  17.7  17.5   0.0   0.0
 2003 348   110  24.7  23.5  21.8  20.3  19.3  18.3  17.8  17.6   0.0   0.0
 2003 349   111  23.8  22.7  21.2  19.9  18.9  18.1  17.7  17.5   0.0   0.0
 2003 350   112  23.0  22.1  20.7  19.5  18.7  17.9  17.6  17.5   0.0   0.0
 2003 351   113  23.1  22.1  20.7  19.5  18.7  17.9  17.6  17.5   0.0   0.0
 2003 352   114  23.6  22.6  21.1  19.8  18.9  18.1  17.6  17.5   0.0   0.0
 2003 353   115  23.8  22.8  21.3  19.9  19.0  18.1  17.7  17.5   0.0   0.0
 2003 354   116  24.1  23.0  21.5  20.1  19.1  18.2  17.7  17.6   0.0   0.0
 2003 355   117  25.6  24.3  22.5  20.9  19.7  18.6  18.0  17.7   0.0   0.0
 2003 356   118  25.5  24.2  22.5  20.8  19.7  18.6  18.0  17.7   0.0   0.0
 2003 357   119  24.9  23.8  22.1  20.6  19.5  18.4  17.9  17.7   0.0   0.0
 2003 358   120  24.4  23.2  21.7  20.3  19.3  18.3  17.8  17.6   0.0   0.0
 2003 359   121  25.3  24.1  22.4  20.8  19.6  18.5  17.9  17.7   0.0   0.0
 2003 360   122  25.3  24.1  22.4  20.8  19.6  18.5  17.9  17.7   0.0   0.0
 2003 361   123  25.8  24.5  22.7  21.0  19.8  18.7  18.0  17.8   0.0   0.0
 2003 362   124  25.5  24.2  22.5  20.9  19.7  18.6  18.0  17.7   0.0   0.0
 2003 363   125  25.2  24.1  22.4  20.8  19.7  18.6  17.9  17.7   0.0   0.0
 2003 364   126  24.9  23.8  22.2  20.7  19.6  18.5  17.9  17.7   0.0   0.0
 2003 365   127  23.8  22.8  21.4  20.1  19.1  18.2  17.7  17.5   0.0   0.0
 2004 001   128  24.1  23.1  21.6  20.2  19.2  18.3  17.7  17.6   0.0   0.0
 2004 002   129  25.1  23.9  22.2  20.7  19.6  18.5  17.9  17.7   0.0   0.0
 2004 003   130  26.2  24.9  23.0  21.3  20.0  18.8  18.1  17.8   0.0   0.0
 2004 004   131  26.7  25.3  23.3  21.5  20.2  18.9  18.2  17.9   0.0   0.0
 2004 005   132  28.3  26.7  24.4  22.4  20.8  19.3  18.4  18.0   0.0   0.0
 2004 006   133  29.5  27.7  25.3  23.0  21.3  19.6  18.6  18.2   0.0   0.0
 2004 007   134  30.3  28.5  25.9  23.4  21.7  19.9  18.8  18.3   0.0   0.0
 2004 008   135  30.6  28.7  26.0  23.6  21.8  19.9  18.8  18.3   0.0   0.0
 2004 009   136  30.7  28.8  26.2  23.7  21.8  20.0  18.8  18.3   0.0   0.0
 2004 010   137  30.4  28.6  26.0  23.5  21.7  19.9  18.8  18.3   0.0   0.0
 2004 011   138  29.3  27.6  25.2  23.0  21.3  19.6  18.6  18.2   0.0   0.0
 2004 012   139  28.3  26.8  24.6  22.5  20.9  19.4  18.4  18.1   0.0   0.0
 2004 013   140  27.6  26.2  24.1  22.1  20.7  19.2  18.3  18.0   0.0   0.0
 2004 014   141  27.3  25.9  23.8  22.0  20.5  19.1  18.3  17.9   0.0   0.0
 2004 015   142  26.5  25.2  23.4  21.6  20.3  19.0  18.2  17.9   0.0   0.0
 2004 016   143  26.4  25.1  23.3  21.6  20.3  19.0  18.2  17.9   0.0   0.0
 2004 017   144  26.4  25.1  23.3  21.6  20.3  19.0  18.2  17.9   0.0   0.0
 2004 018   145  26.2  24.9  23.2  21.5  20.2  18.9  18.1  17.8   0.0   0.0
 2004 019   146  25.1  24.0  22.4  20.9  19.8  18.7  18.0  17.7   0.0   0.0
 2004 020   147  25.2  24.1  22.5  21.0  19.9  18.7  18.0  17.7   0.0   0.0
 2004 021   148  25.6  24.5  22.8  21.2  20.0  18.8  18.1  17.8   0.0   0.0
 2004 022   149  26.2  25.0  23.2  21.5  20.2  18.9  18.2  17.8   0.0   0.0
 2004 023   150  26.7  25.4  23.6  21.8  20.5  19.1  18.3  17.9   0.0   0.0
 2004 024   151  28.0  26.6  24.5  22.5  21.0  19.4  18.5  18.1   0.0   0.0
 2004 025   152  28.5  27.0  24.8  22.8  21.2  19.6  18.6  18.1   0.0   0.0
 2004 026   153  29.0  27.5  25.2  23.0  21.4  19.7  18.6  18.2   0.0   0.0
 2004 027   154  29.2  27.6  25.3  23.2  21.5  19.8  18.7  18.2   0.0   0.0
 2004 028   155  29.2  27.6  25.3  23.1  21.5  19.8  18.7  18.2   0.0   0.0
 2004 029   156  29.7  28.0  25.7  23.4  21.7  19.9  18.8  18.3   0.0   0.0
 2004 030   157  30.8  29.0  26.5  24.0  22.2  20.2  19.0  18.4   0.0   0.0
 2004 031   158  31.1  29.3  26.7  24.2  22.3  20.3  19.0  18.4   0.0   0.0
 2004 032   159  31.0  29.3  26.7  24.2  22.4  20.4  19.1  18.5   0.0   0.0
 2004 033   160  31.1  29.3  26.7  24.3  22.4  20.4  19.1  18.5   0.0   0.0
 2004 034   161  29.2  27.7  25.5  23.3  21.7  19.9  18.8  18.3   0.0   0.0
 2004 035   162  28.0  26.7  24.7  22.7  21.2  19.6  18.6  18.2   0.0   0.0
 2004 036   163  26.9  25.7  23.9  22.2  20.8  19.4  18.4  18.0   0.0   0.0
 2004 037   164  26.3  25.2  23.5  21.9  20.6  19.2  18.4  18.0   0.0   0.0
 2004 038   165  26.1  25.0  23.4  21.8  20.5  19.2  18.3  17.9   0.0   0.0
 2004 039   166  27.0  25.8  24.0  22.3  20.9  19.4  18.5  18.1   0.0   0.0
 2004 040   167  27.0  25.8  24.0  22.3  20.9  19.4  18.5  18.1   0.0   0.0
 2004 041   168  27.4  26.2  24.4  22.5  21.1  19.6  18.6  18.1   0.0   0.0
 2004 042   169  28.0  26.7  24.8  22.8  21.3  19.7  18.7  18.2   0.0   0.0
 2004 043   170  29.0  27.6  25.4  23.4  21.7  20.0  18.8  18.3   0.0   0.0
 2004 044   171  28.2  26.8  24.9  23.0  21.4  19.8  18.7  18.2   0.0   0.0

*DSSAT Cropping System Model Ver. 4.0.2.000               Aug 29, 2016; 09:16:37

*RUN   5        : UYSB                    
 MODEL          : CRGRO040 - Soybean         
 EXPERIMENT     : UYSB0405 SB    late to create DSS                             
 TREATMENT  1   : UYSB                    

@YEAR DOY   DAS  TS1D  TS2D  TS3D  TS4D  TS5D  TS6D  TS7D  TS8D  TS9D  TS10
 2004 238     0  16.9  16.8  16.7  16.9  17.1  17.4  17.6  17.6   0.0   0.0
 2004 239     1  16.6  16.5  16.6  16.7  17.0  17.3  17.5  17.6   0.0   0.0
 2004 240     2  16.7  16.6  16.6  16.7  17.0  17.3  17.5  17.6   0.0   0.0
 2004 241     3  17.0  16.8  16.8  16.9  17.0  17.3  17.5  17.6   0.0   0.0
 2004 242     4  17.8  17.6  17.3  17.3  17.4  17.5  17.7  17.7   0.0   0.0
 2004 243     5  18.7  18.3  17.9  17.7  17.7  17.7  17.8  17.8   0.0   0.0
 2004 244     6  20.2  19.6  18.9  18.5  18.2  18.1  18.0  17.9   0.0   0.0
 2004 245     7  21.9  21.1  20.1  19.3  18.9  18.5  18.3  18.1   0.0   0.0
 2004 246     8  21.7  20.9  19.9  19.2  18.8  18.4  18.2  18.1   0.0   0.0
 2004 247     9  21.1  20.4  19.5  18.9  18.5  18.3  18.1  18.0   0.0   0.0
 2004 248    10  21.8  21.0  20.0  19.2  18.8  18.4  18.2  18.1   0.0   0.0
 2004 249    11  22.8  21.8  20.6  19.7  19.1  18.6  18.3  18.2   0.0   0.0
 2004 250    12  23.7  22.6  21.3  20.2  19.5  18.9  18.5  18.3   0.0   0.0
 2004 251    13  24.3  23.1  21.7  20.5  19.7  19.0  18.6  18.3   0.0   0.0
 2004 252    14  22.8  21.8  20.6  19.7  19.1  18.6  18.3  18.2   0.0   0.0
 2004 253    15  20.3  19.7  18.9  18.4  18.1  18.0  17.9  17.9   0.0   0.0
 2004 254    16  17.2  17.0  16.8  16.8  16.9  17.2  17.4  17.5   0.0   0.0
 2004 255    17  13.8  14.0  14.4  15.0  15.6  16.3  16.8  17.1   0.0   0.0
 2004 256    18  12.4  12.8  13.5  14.3  15.0  15.9  16.6  16.9   0.0   0.0
 2004 257    19  13.2  13.4  14.0  14.6  15.3  16.1  16.7  17.0   0.0   0.0
 2004 258    20  14.4  14.6  14.8  15.3  15.8  16.4  16.9  17.1   0.0   0.0
 2004 259    21  15.2  15.2  15.3  15.6  16.0  16.6  17.0  17.2   0.0   0.0
 2004 260    22  15.6  15.6  15.6  15.9  16.2  16.7  17.1  17.3   0.0   0.0
 2004 261    23  16.7  16.5  16.3  16.4  16.6  16.9  17.2  17.4   0.0   0.0
 2004 262    24  18.7  18.2  17.7  17.4  17.3  17.4  17.5  17.6   0.0   0.0
 2004 263    25  19.4  18.8  18.2  17.8  17.6  17.6  17.6  17.7   0.0   0.0
 2004 264    26  19.0  18.5  17.9  17.6  17.4  17.5  17.5  17.6   0.0   0.0
 2004 265    27  18.8  18.3  17.8  17.5  17.4  17.4  17.5  17.6   0.0   0.0
 2004 266    28  18.7  18.2  17.7  17.4  17.3  17.4  17.5  17.5   0.0   0.0
 2004 267    29  17.7  17.4  17.0  16.9  16.9  17.1  17.3  17.4   0.0   0.0
 2004 268    30  17.8  17.4  17.1  16.9  16.9  17.1  17.3  17.4   0.0   0.0
 2004 269    31  19.5  18.9  18.2  17.8  17.6  17.5  17.6  17.6   0.0   0.0
 2004 270    32  21.0  20.2  19.2  18.5  18.1  17.9  17.8  17.8   0.0   0.0
 2004 271    33  21.4  20.5  19.5  18.7  18.3  18.0  17.8  17.8   0.0   0.0
 2004 272    34  21.4  20.5  19.5  18.7  18.2  17.9  17.8  17.8   0.0   0.0
 2004 273    35  20.3  19.6  18.7  18.1  17.8  17.7  17.6  17.7   0.0   0.0
 2004 274    36  18.5  18.1  17.5  17.2  17.1  17.2  17.4  17.4   0.0   0.0
 2004 275    37  18.3  17.9  17.4  17.1  17.0  17.1  17.3  17.4   0.0   0.0
 2004 276    38  18.6  18.1  17.6  17.2  17.1  17.2  17.3  17.4   0.0   0.0
 2004 277    39  17.7  17.3  16.9  16.8  16.8  16.9  17.2  17.3   0.0   0.0
 2004 278    40  17.7  17.3  16.9  16.7  16.8  16.9  17.2  17.3   0.0   0.0
 2004 279    41  18.6  18.1  17.6  17.2  17.1  17.2  17.3  17.4   0.0   0.0
 2004 280    42  18.1  17.6  17.2  16.9  16.9  17.0  17.2  17.3   0.0   0.0
 2004 281    43  18.0  17.6  17.1  16.9  16.8  17.0  17.2  17.3   0.0   0.0
 2004 282    44  19.5  18.9  18.1  17.6  17.4  17.3  17.4  17.5   0.0   0.0
 2004 283    45  20.8  20.0  19.0  18.3  17.9  17.6  17.6  17.6   0.0   0.0
 2004 284    46  21.2  20.3  19.3  18.5  18.0  17.7  17.7  17.6   0.0   0.0
 2004 285    47  21.7  20.8  19.6  18.8  18.2  17.9  17.7  17.7   0.0   0.0
 2004 286    48  20.7  19.9  18.9  18.2  17.8  17.6  17.6  17.6   0.0   0.0
 2004 287    49  19.8  19.2  18.3  17.8  17.5  17.4  17.4  17.5   0.0   0.0
 2004 288    50  19.3  18.7  18.0  17.5  17.3  17.2  17.3  17.4   0.0   0.0
 2004 289    51  20.3  19.6  18.7  18.0  17.6  17.5  17.5  17.5   0.0   0.0
 2004 290    52  20.2  19.5  18.6  17.9  17.6  17.4  17.4  17.5   0.0   0.0
 2004 291    53  21.7  20.8  19.6  18.7  18.2  17.8  17.7  17.6   0.0   0.0
 2004 292    54  22.2  21.2  20.0  19.0  18.4  17.9  17.7  17.7   0.0   0.0
 2004 293    55  22.1  21.1  19.9  18.9  18.3  17.9  17.7  17.7   0.0   0.0
 2004 294    56  21.0  20.1  19.1  18.3  17.8  17.6  17.5  17.5   0.0   0.0
 2004 295    57  21.4  20.5  19.4  18.5  18.0  17.7  17.6  17.6   0.0   0.0
 2004 296    58  22.0  21.0  19.8  18.8  18.2  17.8  17.7  17.6   0.0   0.0
 2004 297    59  21.7  20.7  19.6  18.6  18.1  17.7  17.6  17.6   0.0   0.0
 2004 298    60  21.4  20.5  19.4  18.5  18.0  17.6  17.5  17.5   0.0   0.0
 2004 299    61  21.6  20.7  19.5  18.6  18.1  17.7  17.6  17.5   0.0   0.0
 2004 300    62  21.2  20.4  19.3  18.4  17.9  17.6  17.5  17.5   0.0   0.0
 2004 301    63  19.5  18.9  18.1  17.5  17.2  17.1  17.2  17.3   0.0   0.0
 2004 302    64  20.5  19.7  18.7  18.0  17.6  17.4  17.4  17.4   0.0   0.0
 2004 303    65  22.3  21.3  20.0  18.9  18.3  17.8  17.6  17.6   0.0   0.0
 2004 304    66  22.0  21.1  19.8  18.8  18.2  17.7  17.6  17.6   0.0   0.0
 2004 305    67  22.3  21.3  20.0  19.0  18.3  17.8  17.6  17.6   0.0   0.0
 2004 306    68  23.7  22.5  21.0  19.7  18.9  18.2  17.8  17.7   0.0   0.0
 2004 307    69  24.7  23.4  21.6  20.2  19.2  18.4  18.0  17.8   0.0   0.0
 2004 308    70  23.4  22.3  20.8  19.5  18.7  18.1  17.8  17.7   0.0   0.0
 2004 309    71  23.6  22.5  20.9  19.6  18.8  18.1  17.8  17.7   0.0   0.0
 2004 310    72  22.4  21.4  20.1  19.0  18.4  17.8  17.6  17.6   0.0   0.0
 2004 311    73  20.9  20.1  19.0  18.2  17.7  17.4  17.3  17.4   0.0   0.0
 2004 312    74  19.2  18.6  17.9  17.4  17.1  17.0  17.1  17.2   0.0   0.0
 2004 313    75  19.5  18.9  18.1  17.5  17.2  17.0  17.1  17.2   0.0   0.0
 2004 314    76  19.2  18.6  17.9  17.3  17.1  17.0  17.0  17.1   0.0   0.0
 2004 315    77  19.9  19.2  18.3  17.7  17.3  17.1  17.1  17.2   0.0   0.0
 2004 316    78  20.0  19.3  18.4  17.8  17.4  17.1  17.2  17.2   0.0   0.0
 2004 317    79  19.7  19.1  18.3  17.6  17.3  17.1  17.1  17.2   0.0   0.0
 2004 318    80  19.1  18.5  17.8  17.3  17.0  16.9  17.0  17.1   0.0   0.0
 2004 319    81  19.5  18.9  18.1  17.5  17.2  17.0  17.1  17.2   0.0   0.0
 2004 320    82  20.4  19.7  18.7  18.0  17.5  17.2  17.2  17.3   0.0   0.0
 2004 321    83  21.2  20.4  19.3  18.4  17.9  17.4  17.3  17.3   0.0   0.0
 2004 322    84  22.0  21.0  19.8  18.8  18.1  17.6  17.5  17.4   0.0   0.0
 2004 323    85  22.4  21.4  20.1  19.0  18.3  17.7  17.5  17.5   0.0   0.0
 2004 324    86  22.2  21.3  20.0  18.9  18.2  17.7  17.5  17.4   0.0   0.0
 2004 325    87  21.5  20.6  19.5  18.6  18.0  17.5  17.4  17.4   0.0   0.0
 2004 326    88  21.7  20.8  19.6  18.6  18.0  17.5  17.4  17.4   0.0   0.0
 2004 327    89  22.3  21.4  20.1  19.0  18.3  17.7  17.5  17.4   0.0   0.0
 2004 328    90  24.1  22.9  21.3  19.9  19.0  18.2  17.8  17.6   0.0   0.0
 2004 329    91  25.0  23.7  21.9  20.4  19.3  18.4  17.9  17.7   0.0   0.0
 2004 330    92  25.4  24.1  22.2  20.6  19.5  18.5  18.0  17.8   0.0   0.0
 2004 331    93  25.8  24.4  22.4  20.8  19.6  18.6  18.0  17.8   0.0   0.0
 2004 332    94  25.5  24.1  22.2  20.6  19.5  18.5  18.0  17.8   0.0   0.0
 2004 333    95  24.4  23.1  21.5  20.0  19.1  18.2  17.8  17.6   0.0   0.0
 2004 334    96  24.6  23.4  21.7  20.2  19.2  18.3  17.8  17.7   0.0   0.0
 2004 335    97  25.1  23.7  22.0  20.4  19.3  18.4  17.9  17.7   0.0   0.0
 2004 336    98  25.6  24.2  22.3  20.7  19.6  18.5  18.0  17.8   0.0   0.0
 2004 337    99  27.1  25.5  23.4  21.5  20.1  18.9  18.2  17.9   0.0   0.0
 2004 338   100  28.3  26.5  24.2  22.1  20.6  19.2  18.4  18.1   0.0   0.0
 2004 339   101  28.5  26.8  24.4  22.2  20.7  19.2  18.4  18.1   0.0   0.0
 2004 340   102  29.4  27.5  25.0  22.7  21.0  19.5  18.6  18.2   0.0   0.0
 2004 341   103  29.2  27.3  24.8  22.6  20.9  19.4  18.5  18.2   0.0   0.0
 2004 342   104  27.6  25.9  23.7  21.7  20.3  19.0  18.3  18.0   0.0   0.0
 2004 343   105  26.6  25.1  23.1  21.2  20.0  18.8  18.1  17.9   0.0   0.0
 2004 344   106  26.0  24.6  22.7  21.0  19.8  18.6  18.0  17.8   0.0   0.0
 2004 345   107  25.1  23.9  22.1  20.5  19.4  18.4  17.9  17.7   0.0   0.0
 2004 346   108  24.6  23.4  21.7  20.2  19.2  18.3  17.8  17.6   0.0   0.0
 2004 347   109  25.2  23.9  22.1  20.5  19.4  18.4  17.9  17.7   0.0   0.0
 2004 348   110  25.8  24.4  22.5  20.9  19.7  18.6  18.0  17.8   0.0   0.0
 2004 349   111  26.6  25.1  23.1  21.3  20.0  18.8  18.1  17.8   0.0   0.0
 2004 350   112  27.7  26.1  23.9  21.9  20.4  19.1  18.3  18.0   0.0   0.0
 2004 351   113  28.2  26.5  24.2  22.1  20.6  19.2  18.4  18.0   0.0   0.0
 2004 352   114  27.7  26.1  23.9  21.9  20.5  19.1  18.3  18.0   0.0   0.0
 2004 353   115  27.3  25.8  23.6  21.7  20.3  19.0  18.2  17.9   0.0   0.0
 2004 354   116  26.6  25.2  23.2  21.4  20.0  18.8  18.1  17.8   0.0   0.0
 2004 355   117  25.5  24.2  22.4  20.8  19.6  18.5  17.9  17.7   0.0   0.0
 2004 356   118  25.2  23.9  22.2  20.6  19.5  18.5  17.9  17.7   0.0   0.0
 2004 357   119  25.3  24.1  22.3  20.7  19.6  18.5  17.9  17.7   0.0   0.0
 2004 358   120  24.9  23.7  22.0  20.5  19.4  18.4  17.8  17.6   0.0   0.0
 2004 359   121  25.2  24.0  22.3  20.7  19.5  18.5  17.9  17.7   0.0   0.0
 2004 360   122  25.5  24.3  22.5  20.9  19.7  18.6  18.0  17.7   0.0   0.0
 2004 361   123  25.7  24.4  22.6  21.0  19.8  18.6  18.0  17.7   0.0   0.0
 2004 362   124  25.8  24.5  22.7  21.0  19.8  18.7  18.0  17.8   0.0   0.0
 2004 363   125  26.3  25.0  23.1  21.3  20.0  18.8  18.1  17.8   0.0   0.0
 2004 364   126  26.3  24.9  23.1  21.3  20.0  18.8  18.1  17.8   0.0   0.0
 2004 365   127  26.8  25.4  23.4  21.6  20.2  18.9  18.2  17.9   0.0   0.0
 2004 366   128  28.0  26.4  24.2  22.2  20.7  19.2  18.4  18.0   0.0   0.0
 2005 001   129  28.6  27.0  24.6  22.4  20.9  19.3  18.4  18.1   0.0   0.0
 2005 002   130  29.1  27.4  25.0  22.7  21.1  19.5  18.5  18.1   0.0   0.0
 2005 003   131  29.5  27.7  25.2  22.9  21.2  19.6  18.6  18.2   0.0   0.0
 2005 004   132  29.9  28.1  25.6  23.2  21.5  19.8  18.7  18.2   0.0   0.0
 2005 005   133  30.1  28.3  25.7  23.3  21.6  19.8  18.7  18.3   0.0   0.0
 2005 006   134  31.0  29.1  26.3  23.8  21.9  20.0  18.9  18.4   0.0   0.0
 2005 007   135  31.9  29.8  27.0  24.3  22.3  20.3  19.0  18.5   0.0   0.0
 2005 008   136  32.9  30.7  27.6  24.8  22.7  20.5  19.2  18.6   0.0   0.0
 2005 009   137  32.2  30.1  27.2  24.4  22.4  20.3  19.1  18.5   0.0   0.0
 2005 010   138  31.6  29.6  26.8  24.1  22.2  20.2  19.0  18.4   0.0   0.0
 2005 011   139  31.1  29.2  26.4  23.9  22.0  20.1  18.9  18.4   0.0   0.0
 2005 012   140  30.8  28.9  26.2  23.7  21.9  20.0  18.8  18.3   0.0   0.0
 2005 013   141  30.3  28.5  25.9  23.5  21.7  19.9  18.8  18.3   0.0   0.0
 2005 014   142  31.7  29.7  26.9  24.2  22.2  20.2  19.0  18.4   0.0   0.0
 2005 015   143  31.5  29.5  26.7  24.1  22.2  20.2  19.0  18.4   0.0   0.0
 2005 016   144  30.9  29.0  26.4  23.9  22.0  20.1  18.9  18.4   0.0   0.0
 2005 017   145  30.6  28.7  26.1  23.7  21.9  20.0  18.8  18.3   0.0   0.0
 2005 018   146  30.5  28.7  26.1  23.7  21.9  20.0  18.8  18.3   0.0   0.0
 2005 019   147  30.0  28.2  25.8  23.4  21.7  19.9  18.7  18.3   0.0   0.0
 2005 020   148  29.3  27.7  25.3  23.1  21.4  19.7  18.6  18.2   0.0   0.0
 2005 021   149  29.3  27.7  25.4  23.1  21.5  19.7  18.7  18.2   0.0   0.0
 2005 022   150  29.7  28.0  25.6  23.3  21.6  19.8  18.7  18.2   0.0   0.0
 2005 023   151  30.4  28.6  26.1  23.7  21.9  20.0  18.8  18.3   0.0   0.0
 2005 024   152  31.1  29.2  26.6  24.0  22.1  20.2  18.9  18.4   0.0   0.0
 2005 025   153  31.3  29.4  26.7  24.2  22.2  20.2  19.0  18.4   0.0   0.0
 2005 026   154  31.0  29.2  26.5  24.1  22.2  20.2  19.0  18.4   0.0   0.0
 2005 027   155  30.1  28.4  26.0  23.6  21.8  20.0  18.8  18.3   0.0   0.0
 2005 028   156  29.4  27.8  25.5  23.2  21.6  19.8  18.7  18.2   0.0   0.0
 2005 029   157  29.0  27.4  25.2  23.0  21.4  19.7  18.6  18.2   0.0   0.0
 2005 030   158  28.6  27.1  25.0  22.9  21.3  19.6  18.6  18.2   0.0   0.0
 2005 031   159  27.7  26.3  24.4  22.5  21.0  19.5  18.5  18.1   0.0   0.0
 2005 032   160  26.5  25.3  23.6  21.9  20.6  19.2  18.3  18.0   0.0   0.0
 2005 033   161  24.8  23.9  22.5  21.1  20.0  18.8  18.1  17.8   0.0   0.0
 2005 034   162  23.5  22.7  21.6  20.4  19.5  18.5  17.9  17.6   0.0   0.0
 2005 035   163  24.0  23.2  21.9  20.7  19.7  18.6  18.0  17.7   0.0   0.0
 2005 036   164  25.6  24.6  23.0  21.5  20.3  19.0  18.2  17.9   0.0   0.0
 2005 037   165  27.5  26.2  24.3  22.5  21.0  19.5  18.5  18.1   0.0   0.0
 2005 038   166  28.7  27.3  25.2  23.1  21.5  19.8  18.7  18.2   0.0   0.0
 2005 039   167  28.6  27.1  25.1  23.1  21.5  19.8  18.7  18.2   0.0   0.0
 2005 040   168  28.1  26.8  24.8  22.9  21.3  19.7  18.7  18.2   0.0   0.0
 2005 041   169  27.5  26.2  24.4  22.6  21.1  19.6  18.6  18.1   0.0   0.0
 2005 042   170  26.1  25.1  23.5  21.9  20.6  19.3  18.4  18.0   0.0   0.0
 2005 043   171  25.6  24.6  23.1  21.6  20.4  19.1  18.3  17.9   0.0   0.0
 2005 044   172  26.3  25.3  23.6  22.0  20.7  19.3  18.4  18.0   0.0   0.0
 2005 045   173  26.9  25.8  24.0  22.3  21.0  19.5  18.5  18.1   0.0   0.0
 2005 046   174  26.6  25.5  23.9  22.2  20.9  19.4  18.5  18.1   0.0   0.0

*DSSAT Cropping System Model Ver. 4.0.2.000               Aug 29, 2016; 09:16:37

*RUN   6        : UYSB                    
 MODEL          : CRGRO040 - Soybean         
 EXPERIMENT     : UYSB0405 SB    late to create DSS                             
 TREATMENT  1   : UYSB                    

@YEAR DOY   DAS  TS1D  TS2D  TS3D  TS4D  TS5D  TS6D  TS7D  TS8D  TS9D  TS10
 2005 238     0  13.9  14.2  14.7  15.4  15.9  16.6  17.1  17.3   0.0   0.0
 2005 239     1  15.3  15.4  15.6  16.0  16.4  16.9  17.3  17.4   0.0   0.0
 2005 240     2  15.5  15.5  15.8  16.1  16.5  17.0  17.3  17.4   0.0   0.0
 2005 241     3  15.1  15.2  15.5  15.9  16.3  16.9  17.2  17.4   0.0   0.0
 2005 242     4  14.8  15.0  15.3  15.7  16.2  16.8  17.2  17.4   0.0   0.0
 2005 243     5  13.9  14.1  14.6  15.2  15.8  16.5  17.0  17.2   0.0   0.0
 2005 244     6  12.2  12.7  13.5  14.4  15.2  16.1  16.7  17.0   0.0   0.0
 2005 245     7  11.9  12.4  13.2  14.2  15.0  16.0  16.7  17.0   0.0   0.0
 2005 246     8  12.2  12.7  13.4  14.3  15.1  16.0  16.7  17.0   0.0   0.0
 2005 247     9  12.5  12.9  13.6  14.5  15.2  16.1  16.7  17.0   0.0   0.0
 2005 248    10  13.2  13.5  14.1  14.8  15.5  16.3  16.8  17.1   0.0   0.0
 2005 249    11  14.0  14.2  14.7  15.2  15.8  16.5  17.0  17.2   0.0   0.0
 2005 250    12  15.0  15.1  15.3  15.7  16.1  16.7  17.1  17.3   0.0   0.0
 2005 251    13  16.2  16.1  16.1  16.3  16.6  17.0  17.3  17.4   0.0   0.0
 2005 252    14  16.9  16.7  16.6  16.6  16.8  17.1  17.4  17.5   0.0   0.0
 2005 253    15  17.2  16.9  16.8  16.8  16.9  17.2  17.4  17.5   0.0   0.0
 2005 254    16  16.3  16.2  16.2  16.3  16.6  16.9  17.2  17.4   0.0   0.0
 2005 255    17  15.0  15.0  15.2  15.6  16.0  16.6  17.0  17.2   0.0   0.0
 2005 256    18  13.2  13.5  14.0  14.7  15.3  16.1  16.7  17.0   0.0   0.0
 2005 257    19  11.5  12.0  12.9  13.8  14.6  15.7  16.4  16.8   0.0   0.0
 2005 258    20  10.3  11.0  12.0  13.1  14.1  15.3  16.2  16.6   0.0   0.0
 2005 259    21  10.6  11.2  12.2  13.3  14.2  15.4  16.2  16.7   0.0   0.0
 2005 260    22  11.1  11.7  12.6  13.6  14.4  15.5  16.3  16.7   0.0   0.0
 2005 261    23  11.8  12.3  13.0  13.9  14.7  15.7  16.4  16.8   0.0   0.0
 2005 262    24  13.5  13.7  14.1  14.7  15.3  16.1  16.7  17.0   0.0   0.0
 2005 263    25  15.0  15.0  15.2  15.5  15.9  16.5  16.9  17.1   0.0   0.0
 2005 264    26  16.1  16.0  15.9  16.1  16.3  16.7  17.1  17.3   0.0   0.0
 2005 265    27  17.7  17.4  17.0  16.9  16.9  17.1  17.3  17.4   0.0   0.0
 2005 266    28  19.7  19.1  18.4  17.9  17.7  17.6  17.6  17.7   0.0   0.0
 2005 267    29  20.0  19.4  18.6  18.1  17.8  17.7  17.7  17.7   0.0   0.0
 2005 268    30  20.2  19.5  18.7  18.1  17.9  17.7  17.7  17.7   0.0   0.0
 2005 269    31  19.5  18.9  18.2  17.8  17.6  17.5  17.6  17.6   0.0   0.0
 2005 270    32  18.6  18.1  17.6  17.3  17.2  17.3  17.4  17.5   0.0   0.0
 2005 271    33  18.1  17.6  17.2  17.0  17.0  17.1  17.3  17.4   0.0   0.0
 2005 272    34  18.4  18.0  17.5  17.2  17.1  17.2  17.4  17.4   0.0   0.0
 2005 273    35  18.3  17.8  17.4  17.1  17.0  17.1  17.3  17.4   0.0   0.0
 2005 274    36  19.0  18.5  17.9  17.5  17.3  17.3  17.4  17.5   0.0   0.0
 2005 275    37  20.1  19.4  18.6  18.0  17.7  17.6  17.6  17.6   0.0   0.0
 2005 276    38  19.7  19.0  18.3  17.8  17.5  17.5  17.5  17.5   0.0   0.0
 2005 277    39  18.9  18.4  17.8  17.4  17.2  17.2  17.4  17.4   0.0   0.0
 2005 278    40  18.4  17.9  17.4  17.1  17.0  17.1  17.3  17.4   0.0   0.0
 2005 279    41  17.9  17.5  17.1  16.8  16.8  17.0  17.2  17.3   0.0   0.0
 2005 280    42  16.9  16.6  16.4  16.3  16.4  16.7  17.0  17.2   0.0   0.0
 2005 281    43  16.7  16.5  16.2  16.2  16.3  16.6  17.0  17.2   0.0   0.0
 2005 282    44  17.3  16.9  16.6  16.5  16.5  16.8  17.0  17.2   0.0   0.0
 2005 283    45  18.4  17.9  17.3  17.0  16.9  17.0  17.2  17.3   0.0   0.0
 2005 284    46  19.1  18.5  17.9  17.4  17.2  17.2  17.3  17.4   0.0   0.0
 2005 285    47  20.9  20.0  19.0  18.3  17.9  17.6  17.6  17.6   0.0   0.0
 2005 286    48  21.4  20.5  19.4  18.6  18.1  17.8  17.7  17.6   0.0   0.0
 2005 287    49  21.3  20.4  19.4  18.5  18.1  17.7  17.6  17.6   0.0   0.0
 2005 288    50  20.4  19.7  18.7  18.1  17.7  17.5  17.5  17.5   0.0   0.0
 2005 289    51  19.3  18.7  18.0  17.5  17.3  17.2  17.3  17.4   0.0   0.0
 2005 290    52  16.9  16.6  16.3  16.2  16.3  16.6  16.9  17.1   0.0   0.0
 2005 291    53  17.1  16.7  16.4  16.3  16.4  16.6  16.9  17.1   0.0   0.0
 2005 292    54  18.3  17.8  17.3  16.9  16.8  16.9  17.1  17.2   0.0   0.0
 2005 293    55  20.6  19.8  18.9  18.1  17.7  17.5  17.5  17.5   0.0   0.0
 2005 294    56  22.5  21.4  20.1  19.1  18.4  17.9  17.7  17.7   0.0   0.0
 2005 295    57  24.9  23.5  21.8  20.3  19.4  18.5  18.1  18.0   0.0   0.0
 2005 296    58  24.1  22.8  21.2  19.9  19.0  18.3  18.0  17.9   0.0   0.0
 2005 297    59  22.1  21.2  19.9  18.9  18.3  17.8  17.7  17.6   0.0   0.0
 2005 298    60  20.3  19.6  18.7  18.0  17.6  17.4  17.4  17.4   0.0   0.0
 2005 299    61  19.4  18.8  18.1  17.5  17.2  17.1  17.2  17.3   0.0   0.0
 2005 300    62  18.5  18.0  17.4  17.0  16.8  16.9  17.0  17.2   0.0   0.0
 2005 301    63  18.6  18.1  17.4  17.0  16.9  16.9  17.1  17.2   0.0   0.0
 2005 302    64  19.0  18.4  17.7  17.2  17.0  17.0  17.1  17.2   0.0   0.0
 2005 303    65  18.7  18.2  17.5  17.1  16.9  16.9  17.1  17.2   0.0   0.0
 2005 304    66  18.1  17.6  17.1  16.8  16.7  16.7  16.9  17.1   0.0   0.0
 2005 305    67  18.0  17.5  17.0  16.7  16.6  16.7  16.9  17.1   0.0   0.0
 2005 306    68  19.3  18.7  17.9  17.4  17.1  17.0  17.1  17.2   0.0   0.0
 2005 307    69  21.3  20.5  19.3  18.4  17.9  17.5  17.4  17.5   0.0   0.0
 2005 308    70  22.8  21.7  20.3  19.2  18.5  17.9  17.7  17.6   0.0   0.0
 2005 309    71  22.9  21.8  20.4  19.3  18.5  17.9  17.7  17.6   0.0   0.0
 2005 310    72  22.6  21.6  20.2  19.1  18.4  17.8  17.6  17.6   0.0   0.0
 2005 311    73  21.5  20.6  19.5  18.5  18.0  17.6  17.4  17.4   0.0   0.0
 2005 312    74  20.0  19.3  18.4  17.8  17.4  17.2  17.2  17.3   0.0   0.0
 2005 313    75  19.4  18.7  18.0  17.4  17.1  17.0  17.1  17.2   0.0   0.0
 2005 314    76  20.3  19.5  18.6  17.9  17.5  17.2  17.2  17.3   0.0   0.0
 2005 315    77  20.8  20.0  19.0  18.2  17.7  17.4  17.3  17.3   0.0   0.0
 2005 316    78  22.3  21.3  20.0  18.9  18.2  17.7  17.5  17.5   0.0   0.0
 2005 317    79  23.6  22.4  20.9  19.6  18.8  18.1  17.7  17.6   0.0   0.0
 2005 318    80  24.8  23.5  21.7  20.2  19.2  18.4  17.9  17.8   0.0   0.0
 2005 319    81  25.8  24.3  22.4  20.7  19.6  18.6  18.1  17.9   0.0   0.0
 2005 320    82  26.0  24.5  22.5  20.8  19.7  18.6  18.1  17.9   0.0   0.0
 2005 321    83  25.8  24.4  22.4  20.7  19.6  18.6  18.1  17.9   0.0   0.0
 2005 322    84  25.1  23.8  21.9  20.4  19.3  18.4  17.9  17.8   0.0   0.0
 2005 323    85  25.1  23.7  21.9  20.4  19.3  18.4  17.9  17.8   0.0   0.0
 2005 324    86  25.5  24.1  22.2  20.6  19.5  18.5  18.0  17.8   0.0   0.0
 2005 325    87  27.2  25.6  23.4  21.5  20.1  18.9  18.3  18.0   0.0   0.0
 2005 326    88  28.8  26.9  24.4  22.2  20.7  19.3  18.5  18.2   0.0   0.0
 2005 327    89  30.2  28.1  25.4  23.0  21.3  19.6  18.7  18.3   0.0   0.0
 2005 328    90  29.8  27.9  25.2  22.8  21.1  19.6  18.7  18.3   0.0   0.0
 2005 329    91  29.5  27.6  25.0  22.7  21.0  19.5  18.6  18.3   0.0   0.0
 2005 330    92  29.0  27.1  24.6  22.4  20.8  19.4  18.5  18.2   0.0   0.0
 2005 331    93  28.5  26.7  24.3  22.2  20.7  19.2  18.4  18.1   0.0   0.0
 2005 332    94  28.7  26.9  24.4  22.3  20.7  19.3  18.5  18.1   0.0   0.0
 2005 333    95  29.9  27.9  25.2  22.8  21.1  19.6  18.6  18.3   0.0   0.0
 2005 334    96  30.1  28.1  25.4  22.9  21.2  19.6  18.7  18.3   0.0   0.0
 2005 335    97  28.9  27.1  24.6  22.3  20.8  19.3  18.5  18.1   0.0   0.0
 2005 336    98  27.4  25.8  23.6  21.6  20.2  18.9  18.2  18.0   0.0   0.0
 2005 337    99  27.1  25.5  23.4  21.4  20.1  18.9  18.2  17.9   0.0   0.0
 2005 338   100  25.2  23.9  22.1  20.6  19.4  18.4  17.9  17.7   0.0   0.0
 2005 339   101  24.3  23.1  21.5  20.1  19.1  18.2  17.8  17.6   0.0   0.0
 2005 340   102  23.9  22.8  21.3  19.9  19.0  18.1  17.7  17.6   0.0   0.0
 2005 341   103  23.7  22.6  21.1  19.8  18.9  18.1  17.7  17.5   0.0   0.0
 2005 342   104  23.4  22.3  20.9  19.6  18.7  18.0  17.6  17.5   0.0   0.0
 2005 343   105  23.2  22.2  20.8  19.5  18.7  17.9  17.6  17.5   0.0   0.0
 2005 344   106  22.7  21.7  20.4  19.3  18.5  17.8  17.5  17.4   0.0   0.0
 2005 345   107  22.9  21.9  20.6  19.4  18.6  17.9  17.5  17.4   0.0   0.0
 2005 346   108  23.5  22.4  21.0  19.7  18.8  18.0  17.6  17.5   0.0   0.0
 2005 347   109  23.4  22.3  20.9  19.6  18.8  18.0  17.6  17.5   0.0   0.0
 2005 348   110  24.6  23.4  21.8  20.3  19.2  18.3  17.8  17.6   0.0   0.0
 2005 349   111  26.0  24.6  22.7  21.0  19.8  18.6  18.0  17.8   0.0   0.0
 2005 350   112  26.8  25.3  23.2  21.4  20.1  18.8  18.1  17.9   0.0   0.0
 2005 351   113  26.9  25.4  23.4  21.5  20.2  18.9  18.2  17.9   0.0   0.0
 2005 352   114  26.9  25.5  23.4  21.5  20.2  18.9  18.2  17.9   0.0   0.0
 2005 353   115  26.4  25.0  23.1  21.3  20.0  18.8  18.1  17.8   0.0   0.0
 2005 354   116  26.1  24.7  22.8  21.1  19.9  18.7  18.0  17.8   0.0   0.0
 2005 355   117  26.7  25.2  23.2  21.4  20.1  18.8  18.1  17.9   0.0   0.0
 2005 356   118  28.1  26.5  24.2  22.2  20.7  19.2  18.4  18.0   0.0   0.0
 2005 357   119  28.5  26.8  24.5  22.4  20.8  19.3  18.4  18.1   0.0   0.0
 2005 358   120  28.9  27.2  24.8  22.6  21.0  19.4  18.5  18.1   0.0   0.0
 2005 359   121  28.8  27.1  24.7  22.5  20.9  19.4  18.5  18.1   0.0   0.0
 2005 360   122  28.6  26.9  24.6  22.4  20.9  19.3  18.4  18.1   0.0   0.0
 2005 361   123  27.9  26.4  24.2  22.1  20.6  19.2  18.3  18.0   0.0   0.0
 2005 362   124  28.4  26.8  24.5  22.4  20.8  19.3  18.4  18.0   0.0   0.0
 2005 363   125  29.8  28.0  25.5  23.1  21.4  19.7  18.6  18.2   0.0   0.0
 2005 364   126  31.2  29.2  26.4  23.8  21.9  20.0  18.8  18.4   0.0   0.0
 2005 365   127  30.4  28.5  25.8  23.4  21.6  19.8  18.7  18.3   0.0   0.0
 2006 001   128  29.8  27.9  25.4  23.1  21.4  19.7  18.6  18.2   0.0   0.0
 2006 002   129  29.2  27.5  25.0  22.8  21.1  19.5  18.5  18.1   0.0   0.0
 2006 003   130  28.4  26.8  24.5  22.4  20.9  19.3  18.4  18.1   0.0   0.0
 2006 004   131  27.2  25.7  23.7  21.8  20.4  19.0  18.2  17.9   0.0   0.0
 2006 005   132  28.1  26.5  24.3  22.2  20.7  19.3  18.4  18.0   0.0   0.0
 2006 006   133  29.4  27.6  25.2  22.9  21.2  19.6  18.6  18.2   0.0   0.0
 2006 007   134  30.6  28.7  26.0  23.5  21.7  19.9  18.7  18.3   0.0   0.0
 2006 008   135  31.7  29.6  26.8  24.1  22.2  20.2  19.0  18.4   0.0   0.0
 2006 009   136  33.1  30.9  27.8  24.9  22.7  20.5  19.2  18.6   0.0   0.0
 2006 010   137  34.6  32.2  28.8  25.6  23.3  20.9  19.4  18.7   0.0   0.0
 2006 011   138  34.2  31.9  28.6  25.5  23.2  20.8  19.4  18.7   0.0   0.0
 2006 012   139  34.1  31.8  28.5  25.4  23.1  20.8  19.3  18.7   0.0   0.0
 2006 013   140  32.1  30.1  27.2  24.5  22.4  20.4  19.1  18.5   0.0   0.0
 2006 014   141  31.1  29.2  26.5  24.0  22.1  20.1  18.9  18.4   0.0   0.0
 2006 015   142  30.3  28.5  26.0  23.6  21.8  20.0  18.8  18.3   0.0   0.0
 2006 016   143  28.9  27.3  25.0  22.9  21.2  19.6  18.6  18.2   0.0   0.0
 2006 017   144  26.7  25.4  23.5  21.8  20.4  19.1  18.2  17.9   0.0   0.0
 2006 018   145  26.6  25.4  23.5  21.7  20.4  19.1  18.2  17.9   0.0   0.0
 2006 019   146  26.2  25.0  23.2  21.5  20.3  19.0  18.2  17.9   0.0   0.0
 2006 020   147  25.9  24.8  23.0  21.4  20.2  18.9  18.1  17.8   0.0   0.0
 2006 021   148  26.6  25.3  23.5  21.7  20.4  19.1  18.2  17.9   0.0   0.0
 2006 022   149  27.1  25.7  23.8  22.0  20.6  19.2  18.3  18.0   0.0   0.0
 2006 023   150  27.4  26.0  24.1  22.2  20.7  19.3  18.4  18.0   0.0   0.0
 2006 024   151  27.4  26.0  24.1  22.2  20.8  19.3  18.4  18.0   0.0   0.0
 2006 025   152  26.4  25.2  23.4  21.7  20.4  19.1  18.2  17.9   0.0   0.0
 2006 026   153  26.3  25.1  23.3  21.6  20.4  19.0  18.2  17.9   0.0   0.0
 2006 027   154  26.7  25.5  23.6  21.9  20.5  19.2  18.3  17.9   0.0   0.0
 2006 028   155  27.6  26.2  24.3  22.3  20.9  19.4  18.4  18.0   0.0   0.0
 2006 029   156  28.5  27.1  24.9  22.9  21.3  19.7  18.6  18.2   0.0   0.0
 2006 030   157  29.6  28.0  25.6  23.4  21.7  19.9  18.8  18.3   0.0   0.0
 2006 031   158  30.0  28.3  25.9  23.6  21.9  20.0  18.8  18.3   0.0   0.0
 2006 032   159  30.3  28.6  26.1  23.8  22.0  20.1  18.9  18.4   0.0   0.0
 2006 033   160  30.4  28.7  26.2  23.8  22.0  20.1  18.9  18.4   0.0   0.0
 2006 034   161  29.4  27.8  25.5  23.3  21.6  19.9  18.8  18.3   0.0   0.0
 2006 035   162  28.0  26.7  24.7  22.7  21.2  19.6  18.6  18.1   0.0   0.0
 2006 036   163  27.8  26.5  24.5  22.6  21.1  19.6  18.6  18.1   0.0   0.0
 2006 037   164  27.3  26.1  24.2  22.4  21.0  19.5  18.5  18.1   0.0   0.0
 2006 038   165  26.3  25.2  23.5  21.9  20.6  19.2  18.3  18.0   0.0   0.0
 2006 039   166  26.6  25.4  23.7  22.0  20.7  19.3  18.4  18.0   0.0   0.0
 2006 040   167  27.3  26.0  24.2  22.4  21.0  19.5  18.5  18.1   0.0   0.0
 2006 041   168  27.1  25.9  24.1  22.3  20.9  19.4  18.5  18.1   0.0   0.0
 2006 042   169  27.0  25.8  24.0  22.3  20.9  19.4  18.5  18.1   0.0   0.0
 2006 043   170  27.1  25.9  24.1  22.3  21.0  19.5  18.5  18.1   0.0   0.0
 2006 044   171  26.9  25.8  24.0  22.3  20.9  19.5  18.5  18.1   0.0   0.0
 2006 045   172  27.5  26.2  24.4  22.6  21.1  19.6  18.6  18.1   0.0   0.0
 2006 046   173  28.5  27.1  25.1  23.1  21.5  19.9  18.8  18.3   0.0   0.0
 2006 047   174  29.2  27.8  25.6  23.5  21.8  20.1  18.9  18.3   0.0   0.0
 2006 048   175  30.4  28.7  26.4  24.1  22.3  20.4  19.1  18.5   0.0   0.0

*DSSAT Cropping System Model Ver. 4.0.2.000               Aug 29, 2016; 09:16:37

*RUN   7        : UYSB                    
 MODEL          : CRGRO040 - Soybean         
 EXPERIMENT     : UYSB0405 SB    late to create DSS                             
 TREATMENT  1   : UYSB                    

@YEAR DOY   DAS  TS1D  TS2D  TS3D  TS4D  TS5D  TS6D  TS7D  TS8D  TS9D  TS10
 2006 238     0  23.9  22.8  21.5  20.4  19.7  19.1  18.6  18.4   0.0   0.0
[...]
 2013 299    61  19.9  19.2  18.4  17.7  17.4  17.2  17.3  17.4   0.0   0.0
 2013 300    62  20.1  19.4  18.5  17.8  17.5  17.3  17.3  17.4   0.0   0.0
 2013 301    63  20.2  19.5  18.6  17.9  17.5  17.3  17.3  17.4   0.0   0.0
 2013 302    64  20.8  20.0  19.0  18.2  17.8  17.5  17.4  17.4   0.0   0.0
 2013 303    65  22.0  21.0  19.8  18.8  18.2  17.7  17.6  17.6   0.0   0.0
 2013 304    66  22.4  21.3  20.0  19.0  18.3  17.8  17.6  17.6   0.0   0.0
 2013 305    67  22.9  21.8  20.4  19.3  18.5  18.0  17.7  17.7   0.0   0.0
 2013 306    68  23.1  22.0  20.6  19.4  18.6  18.0  17.7  17.7   0.0   0.0
 2013 307    69  22.7  21.7  20.3  19.2  18.5  17.9  17.7  17.6   0.0   0.0
 2013 308    70  22.0  21.1  19.8  18.8  18.2  17.7  17.6  17.5   0.0   0.0
 2013 309    71  21.9  21.0  19.8  18.8  18.1  17.7  17.5  17.5   0.0   0.0
 2013 310    72  22.0  21.0  19.8  18.8  18.1  17.7  17.5  17.5   0.0   0.0
 2013 311    73  23.1  22.0  20.5  19.3  18.6  18.0  17.7  17.6   0.0   0.0
 2013 312    74  23.9  22.7  21.1  19.7  18.9  18.1  17.8  17.7   0.0   0.0
 2013 313    75  24.2  22.9  21.3  19.9  19.0  18.2  17.9  17.7   0.0   0.0
 2013 314    76  23.9  22.7  21.1  19.8  18.9  18.1  17.8  17.7   0.0   0.0
 2013 315    77  23.6  22.4  20.9  19.6  18.8  18.1  17.8  17.7   0.0   0.0
 2013 316    78  23.2  22.1  20.7  19.4  18.6  18.0  17.7  17.6   0.0   0.0
 2013 317    79  23.1  22.0  20.6  19.4  18.6  17.9  17.7  17.6   0.0   0.0
 2013 318    80  24.6  23.3  21.6  20.1  19.1  18.3  17.9  17.8   0.0   0.0
 2013 319    81  25.0  23.6  21.8  20.3  19.3  18.4  17.9  17.8   0.0   0.0
 2013 320    82  24.8  23.5  21.8  20.3  19.3  18.4  17.9  17.8   0.0   0.0
 2013 321    83  24.3  23.0  21.4  20.0  19.0  18.2  17.8  17.7   0.0   0.0
 2013 322    84  25.2  23.8  22.0  20.4  19.4  18.4  18.0  17.8   0.0   0.0
 2013 323    85  23.5  22.4  20.9  19.6  18.7  18.0  17.7  17.6   0.0   0.0
 2013 324    86  23.5  22.4  20.9  19.6  18.7  18.0  17.7  17.6   0.0   0.0
 2013 325    87  23.8  22.6  21.1  19.7  18.8  18.1  17.7  17.6   0.0   0.0
 2013 326    88  24.0  22.8  21.2  19.9  18.9  18.1  17.8  17.6   0.0   0.0
 2013 327    89  23.4  22.3  20.8  19.5  18.7  18.0  17.6  17.6   0.0   0.0
 2013 328    90  24.9  23.6  21.8  20.3  19.3  18.4  17.9  17.7   0.0   0.0
 2013 329    91  26.3  24.9  22.8  21.1  19.8  18.7  18.1  17.9   0.0   0.0
 2013 330    92  26.9  25.3  23.2  21.3  20.0  18.9  18.2  18.0   0.0   0.0
 2013 331    93  27.2  25.6  23.4  21.5  20.2  18.9  18.2  18.0   0.0   0.0
 2013 332    94  26.7  25.2  23.1  21.3  20.0  18.8  18.2  17.9   0.0   0.0
 2013 333    95  26.4  24.9  22.9  21.1  19.9  18.7  18.1  17.9   0.0   0.0
 2013 334    96  25.9  24.5  22.6  20.9  19.7  18.6  18.0  17.8   0.0   0.0
 2013 335    97  25.9  24.5  22.6  20.9  19.7  18.6  18.0  17.8   0.0   0.0
 2013 336    98  26.6  25.1  23.1  21.2  20.0  18.8  18.1  17.9   0.0   0.0
 2013 337    99  26.7  25.2  23.1  21.3  20.0  18.8  18.1  17.9   0.0   0.0
 2013 338   100  27.2  25.6  23.4  21.5  20.2  18.9  18.2  17.9   0.0   0.0
 2013 339   101  26.9  25.4  23.3  21.4  20.1  18.9  18.2  17.9   0.0   0.0
 2013 340   102  26.3  24.8  22.8  21.1  19.8  18.7  18.1  17.8   0.0   0.0
 2013 341   103  26.1  24.7  22.7  21.0  19.8  18.6  18.0  17.8   0.0   0.0
 2013 342   104  27.7  26.1  23.8  21.8  20.4  19.0  18.3  18.0   0.0   0.0
 2013 343   105  27.3  25.8  23.6  21.6  20.3  19.0  18.2  18.0   0.0   0.0
 2013 344   106  26.9  25.4  23.3  21.4  20.1  18.9  18.2  17.9   0.0   0.0
 2013 345   107  27.4  25.8  23.6  21.7  20.3  19.0  18.2  17.9   0.0   0.0
 2013 346   108  27.0  25.5  23.4  21.5  20.1  18.9  18.2  17.9   0.0   0.0
 2013 347   109  26.5  25.0  23.0  21.2  19.9  18.7  18.1  17.8   0.0   0.0
 2013 348   110  27.4  25.8  23.6  21.7  20.3  19.0  18.2  17.9   0.0   0.0
 2013 349   111  28.8  27.0  24.6  22.4  20.8  19.3  18.4  18.1   0.0   0.0
 2013 350   112  30.4  28.5  25.7  23.3  21.5  19.8  18.7  18.3   0.0   0.0
 2013 351   113  31.4  29.3  26.4  23.8  21.9  20.0  18.9  18.4   0.0   0.0
 2013 352   114  31.5  29.4  26.5  23.9  21.9  20.0  18.9  18.4   0.0   0.0
 2013 353   115  31.2  29.2  26.3  23.7  21.8  19.9  18.8  18.4   0.0   0.0
 2013 354   116  31.0  28.9  26.1  23.6  21.7  19.9  18.8  18.3   0.0   0.0
 2013 355   117  30.7  28.7  26.0  23.4  21.6  19.8  18.7  18.3   0.0   0.0
 2013 356   118  30.5  28.5  25.8  23.4  21.6  19.8  18.7  18.3   0.0   0.0
 2013 357   119  30.8  28.8  26.1  23.5  21.7  19.9  18.8  18.3   0.0   0.0
 2013 358   120  31.4  29.3  26.5  23.8  21.9  20.0  18.9  18.4   0.0   0.0
 2013 359   121  32.2  30.1  27.0  24.3  22.2  20.2  19.0  18.5   0.0   0.0
 2013 360   122  33.2  30.9  27.7  24.8  22.6  20.5  19.1  18.6   0.0   0.0
 2013 361   123  34.0  31.6  28.3  25.2  23.0  20.7  19.3  18.7   0.0   0.0
 2013 362   124  34.1  31.7  28.3  25.3  23.0  20.7  19.3  18.7   0.0   0.0
 2013 363   125  34.2  31.8  28.4  25.3  23.0  20.7  19.3  18.7   0.0   0.0
 2013 364   126  34.7  32.2  28.8  25.6  23.2  20.9  19.4  18.7   0.0   0.0
 2013 365   127  32.9  30.6  27.5  24.7  22.5  20.4  19.1  18.5   0.0   0.0
 2014 001   128  32.7  30.4  27.4  24.5  22.4  20.3  19.1  18.5   0.0   0.0
 2014 002   129  32.6  30.4  27.3  24.5  22.4  20.3  19.1  18.5   0.0   0.0
 2014 003   130  31.2  29.2  26.4  23.8  21.9  20.0  18.8  18.3   0.0   0.0
 2014 004   131  29.7  27.9  25.3  23.0  21.3  19.6  18.6  18.2   0.0   0.0
 2014 005   132  30.7  28.8  26.1  23.6  21.7  19.9  18.8  18.3   0.0   0.0
 2014 006   133  30.8  28.9  26.2  23.6  21.8  19.9  18.8  18.3   0.0   0.0
 2014 007   134  31.2  29.2  26.5  23.9  22.0  20.0  18.9  18.4   0.0   0.0
 2014 008   135  31.8  29.8  26.9  24.2  22.2  20.2  19.0  18.5   0.0   0.0
 2014 009   136  32.2  30.1  27.2  24.5  22.4  20.4  19.1  18.5   0.0   0.0
 2014 010   137  30.8  28.9  26.2  23.7  21.9  20.0  18.8  18.3   0.0   0.0
 2014 011   138  28.8  27.2  24.9  22.7  21.1  19.5  18.5  18.1   0.0   0.0
 2014 012   139  26.7  25.3  23.4  21.6  20.3  19.0  18.2  17.9   0.0   0.0
 2014 013   140  25.8  24.6  22.9  21.2  20.0  18.8  18.1  17.8   0.0   0.0
 2014 014   141  24.8  23.7  22.2  20.7  19.6  18.5  17.9  17.7   0.0   0.0
 2014 015   142  25.6  24.4  22.7  21.1  19.9  18.7  18.0  17.8   0.0   0.0
 2014 016   143  27.1  25.7  23.8  21.9  20.5  19.1  18.3  17.9   0.0   0.0
 2014 017   144  29.0  27.4  25.1  22.9  21.2  19.6  18.6  18.1   0.0   0.0
 2014 018   145  30.9  29.0  26.4  23.9  22.0  20.1  18.9  18.4   0.0   0.0
 2014 019   146  32.5  30.4  27.5  24.7  22.6  20.5  19.1  18.5   0.0   0.0
 2014 020   147  33.6  31.4  28.2  25.3  23.1  20.8  19.3  18.7   0.0   0.0
 2014 021   148  34.0  31.7  28.5  25.5  23.2  20.9  19.4  18.7   0.0   0.0
 2014 022   149  33.7  31.5  28.4  25.4  23.2  20.9  19.4  18.7   0.0   0.0
 2014 023   150  33.6  31.5  28.3  25.4  23.2  20.9  19.4  18.7   0.0   0.0
 2014 024   151  32.3  30.3  27.4  24.7  22.7  20.5  19.2  18.6   0.0   0.0
 2014 025   152  29.7  28.1  25.7  23.4  21.7  19.9  18.8  18.3   0.0   0.0
 2014 026   153  27.5  26.2  24.2  22.3  20.9  19.4  18.4  18.0   0.0   0.0
 2014 027   154  26.4  25.2  23.4  21.7  20.4  19.1  18.3  17.9   0.0   0.0
 2014 028   155  25.5  24.4  22.8  21.3  20.1  18.9  18.1  17.8   0.0   0.0
 2014 029   156  24.8  23.8  22.4  21.0  19.9  18.7  18.0  17.8   0.0   0.0
 2014 030   157  25.5  24.4  22.9  21.4  20.2  18.9  18.2  17.8   0.0   0.0
 2014 031   158  25.7  24.6  23.1  21.5  20.3  19.1  18.2  17.9   0.0   0.0
 2014 032   159  25.6  24.5  23.0  21.5  20.3  19.0  18.2  17.9   0.0   0.0
 2014 033   160  25.2  24.2  22.8  21.3  20.2  19.0  18.2  17.9   0.0   0.0
 2014 034   161  25.4  24.4  22.9  21.4  20.3  19.0  18.2  17.9   0.0   0.0

*DSSAT Cropping System Model Ver. 4.0.2.000               Aug 29, 2016; 09:16:37

*RUN  15        : UYSB                    
 MODEL          : CRGRO040 - Soybean         
 EXPERIMENT     : UYSB0405 SB    late to create DSS                             
 TREATMENT  1   : UYSB                    

@YEAR DOY   DAS  TS1D  TS2D  TS3D  TS4D  TS5D  TS6D  TS7D  TS8D  TS9D  TS10
 2014 238     0  13.6  13.9  14.5  15.2  15.8  16.5  17.0  17.2   0.0   0.0
 2014 239     1  13.1  13.5  14.2  15.0  15.6  16.4  17.0  17.2   0.0   0.0
 2014 240     2  12.8  13.2  13.9  14.8  15.5  16.3  16.9  17.1   0.0   0.0
 2014 241     3  13.1  13.4  14.1  14.9  15.6  16.4  16.9  17.2   0.0   0.0
 2014 242     4  14.1  14.3  14.8  15.4  15.9  16.6  17.1  17.3   0.0   0.0
 2014 243     5  16.0  16.0  16.1  16.3  16.6  17.1  17.3  17.5   0.0   0.0
 2014 244     6  17.6  17.4  17.2  17.1  17.2  17.4  17.6  17.6   0.0   0.0
 2014 245     7  18.2  17.9  17.6  17.4  17.5  17.6  17.7  17.7   0.0   0.0
 2014 246     8  18.7  18.3  17.9  17.6  17.6  17.7  17.7  17.7   0.0   0.0
 2014 247     9  18.4  18.0  17.6  17.5  17.5  17.6  17.7  17.7   0.0   0.0
 2014 248    10  17.9  17.6  17.3  17.2  17.3  17.4  17.6  17.6   0.0   0.0
 2014 249    11  17.4  17.2  17.0  17.0  17.1  17.3  17.5  17.6   0.0   0.0
 2014 250    12  18.0  17.7  17.4  17.2  17.3  17.4  17.6  17.6   0.0   0.0
 2014 251    13  18.6  18.2  17.8  17.6  17.5  17.6  17.7  17.7   0.0   0.0
 2014 252    14  19.9  19.3  18.7  18.2  18.0  17.9  17.9  17.8   0.0   0.0
 2014 253    15  18.6  18.2  17.8  17.5  17.5  17.5  17.6  17.7   0.0   0.0
 2014 254    16  18.3  17.9  17.5  17.3  17.3  17.4  17.6  17.6   0.0   0.0
 2014 255    17  17.0  16.8  16.6  16.7  16.8  17.1  17.3  17.5   0.0   0.0
 2014 256    18  15.7  15.7  15.7  16.0  16.3  16.7  17.1  17.3   0.0   0.0
 2014 257    19  14.1  14.2  14.6  15.1  15.6  16.3  16.8  17.1   0.0   0.0
 2014 258    20  15.3  15.3  15.4  15.7  16.1  16.6  17.0  17.2   0.0   0.0
 2014 259    21  15.6  15.5  15.6  15.9  16.2  16.7  17.1  17.2   0.0   0.0
 2014 260    22  16.7  16.5  16.4  16.4  16.6  16.9  17.2  17.4   0.0   0.0
 2014 261    23  17.2  16.9  16.7  16.7  16.8  17.0  17.3  17.4   0.0   0.0
 2014 262    24  18.0  17.6  17.2  17.1  17.1  17.2  17.4  17.5   0.0   0.0
 2014 263    25  18.5  18.1  17.6  17.3  17.3  17.4  17.5  17.6   0.0   0.0
 2014 264    26  18.5  18.1  17.6  17.3  17.3  17.3  17.5  17.5   0.0   0.0
 2014 265    27  19.1  18.6  18.0  17.6  17.5  17.5  17.6  17.6   0.0   0.0
 2014 266    28  20.4  19.7  18.9  18.3  18.0  17.8  17.8  17.7   0.0   0.0
 2014 267    29  20.6  19.8  19.0  18.3  18.0  17.8  17.8  17.7   0.0   0.0
 2014 268    30  21.1  20.3  19.3  18.6  18.2  17.9  17.8  17.8   0.0   0.0
 2014 269    31  20.9  20.1  19.2  18.5  18.1  17.9  17.8  17.8   0.0   0.0
 2014 270    32  20.6  19.8  19.0  18.3  18.0  17.8  17.7  17.7   0.0   0.0
 2014 271    33  20.3  19.6  18.7  18.1  17.8  17.7  17.7  17.7   0.0   0.0
 2014 272    34  20.2  19.5  18.7  18.1  17.8  17.6  17.6  17.7   0.0   0.0
 2014 273    35  19.0  18.5  17.9  17.5  17.3  17.3  17.4  17.5   0.0   0.0
 2014 274    36  19.8  19.1  18.4  17.9  17.6  17.5  17.5  17.6   0.0   0.0
 2014 275    37  19.8  19.1  18.4  17.8  17.6  17.5  17.5  17.6   0.0   0.0
 2014 276    38  18.3  17.9  17.4  17.1  17.0  17.1  17.3  17.4   0.0   0.0
 2014 277    39  17.7  17.3  16.9  16.8  16.8  16.9  17.2  17.3   0.0   0.0
 2014 278    40  17.5  17.1  16.8  16.6  16.7  16.9  17.1  17.3   0.0   0.0
 2014 279    41  17.4  17.1  16.7  16.6  16.6  16.8  17.1  17.2   0.0   0.0
 2014 280    42  18.1  17.7  17.2  17.0  16.9  17.0  17.2  17.3   0.0   0.0
 2014 281    43  20.4  19.6  18.7  18.1  17.8  17.6  17.6  17.6   0.0   0.0
 2014 282    44  21.4  20.5  19.4  18.6  18.1  17.8  17.7  17.7   0.0   0.0
 2014 283    45  21.8  20.9  19.7  18.8  18.3  17.9  17.8  17.7   0.0   0.0
 2014 284    46  21.1  20.3  19.2  18.5  18.0  17.7  17.6  17.6   0.0   0.0
 2014 285    47  20.1  19.4  18.5  17.9  17.6  17.4  17.5  17.5   0.0   0.0
 2014 286    48  19.0  18.4  17.8  17.3  17.2  17.2  17.3  17.4   0.0   0.0
 2014 287    49  18.7  18.2  17.6  17.2  17.1  17.1  17.2  17.3   0.0   0.0
 2014 288    50  19.9  19.2  18.4  17.8  17.5  17.4  17.4  17.5   0.0   0.0
 2014 289    51  21.3  20.4  19.4  18.5  18.0  17.7  17.6  17.6   0.0   0.0
 2014 290    52  22.1  21.1  19.9  18.9  18.3  17.9  17.7  17.7   0.0   0.0
 2014 291    53  22.1  21.1  19.9  18.9  18.3  17.9  17.7  17.7   0.0   0.0
 2014 292    54  21.7  20.8  19.6  18.7  18.2  17.8  17.7  17.6   0.0   0.0
 2014 293    55  21.2  20.3  19.3  18.4  18.0  17.6  17.6  17.6   0.0   0.0
 2014 294    56  21.1  20.3  19.2  18.4  17.9  17.6  17.5  17.5   0.0   0.0
 2014 295    57  22.3  21.3  20.0  19.0  18.4  17.9  17.7  17.7   0.0   0.0
 2014 296    58  23.7  22.5  20.9  19.7  18.9  18.2  17.9  17.8   0.0   0.0
 2014 297    59  24.9  23.6  21.8  20.3  19.4  18.5  18.1  18.0   0.0   0.0
 2014 298    60  25.5  24.1  22.2  20.6  19.6  18.7  18.2  18.0   0.0   0.0
 2014 299    61  26.3  24.8  22.8  21.0  19.9  18.9  18.3  18.1   0.0   0.0
 2014 300    62  27.1  25.5  23.3  21.4  20.2  19.1  18.4  18.2   0.0   0.0
 2014 301    63  28.1  26.3  24.0  22.0  20.6  19.3  18.6  18.3   0.0   0.0
 2014 302    64  28.0  26.2  23.9  21.9  20.5  19.3  18.6  18.3   0.0   0.0
 2014 303    65  27.9  26.2  23.9  21.9  20.5  19.3  18.6  18.3   0.0   0.0
 2014 304    66  26.3  24.8  22.8  21.1  19.9  18.9  18.3  18.1   0.0   0.0
 2014 305    67  24.0  22.8  21.2  19.8  19.0  18.3  17.9  17.8   0.0   0.0
 2014 306    68  20.9  20.1  19.1  18.2  17.8  17.4  17.4  17.4   0.0   0.0
 2014 307    69  19.9  19.2  18.3  17.7  17.3  17.2  17.2  17.3   0.0   0.0
 2014 308    70  18.8  18.2  17.6  17.1  16.9  16.9  17.0  17.1   0.0   0.0
 2014 309    71  19.2  18.6  17.9  17.3  17.1  17.0  17.1  17.2   0.0   0.0
 2014 310    72  20.4  19.6  18.7  18.0  17.5  17.3  17.3  17.3   0.0   0.0
 2014 311    73  22.2  21.2  19.9  18.9  18.2  17.7  17.6  17.5   0.0   0.0
 2014 312    74  23.6  22.4  20.9  19.6  18.8  18.1  17.8  17.7   0.0   0.0
 2014 313    75  25.8  24.3  22.4  20.7  19.6  18.6  18.1  17.9   0.0   0.0
 2014 314    76  27.5  25.8  23.6  21.6  20.3  19.1  18.4  18.1   0.0   0.0
 2014 315    77  27.9  26.1  23.8  21.8  20.4  19.1  18.4  18.1   0.0   0.0
 2014 316    78  27.2  25.5  23.3  21.4  20.1  19.0  18.3  18.1   0.0   0.0
 2014 317    79  25.9  24.5  22.5  20.8  19.7  18.6  18.1  17.9   0.0   0.0
 2014 318    80  24.7  23.4  21.6  20.2  19.2  18.3  17.9  17.8   0.0   0.0
 2014 319    81  24.0  22.8  21.2  19.8  18.9  18.1  17.8  17.7   0.0   0.0
 2014 320    82  24.6  23.3  21.6  20.1  19.1  18.3  17.9  17.7   0.0   0.0
 2014 321    83  25.5  24.1  22.2  20.6  19.5  18.5  18.0  17.8   0.0   0.0
 2014 322    84  27.3  25.6  23.4  21.5  20.2  18.9  18.3  18.0   0.0   0.0
 2014 323    85  28.8  27.0  24.5  22.3  20.7  19.3  18.5  18.2   0.0   0.0
 2014 324    86  28.9  27.0  24.5  22.3  20.8  19.4  18.5  18.2   0.0   0.0
 2014 325    87  27.2  25.5  23.4  21.4  20.1  18.9  18.3  18.0   0.0   0.0
 2014 326    88  25.7  24.3  22.4  20.7  19.6  18.6  18.0  17.8   0.0   0.0
 2014 327    89  24.9  23.5  21.8  20.3  19.2  18.3  17.9  17.7   0.0   0.0
 2014 328    90  24.6  23.3  21.6  20.1  19.1  18.3  17.8  17.7   0.0   0.0
 2014 329    91  24.0  22.8  21.2  19.8  18.9  18.1  17.7  17.6   0.0   0.0
 2014 330    92  24.8  23.5  21.8  20.2  19.2  18.3  17.9  17.7   0.0   0.0
 2014 331    93  26.0  24.6  22.6  20.9  19.7  18.6  18.0  17.8   0.0   0.0
 2014 332    94  26.4  24.9  22.8  21.1  19.8  18.7  18.1  17.9   0.0   0.0
 2014 333    95  26.6  25.1  23.0  21.2  19.9  18.7  18.1  17.9   0.0   0.0
 2014 334    96  26.7  25.1  23.0  21.2  19.9  18.8  18.1  17.9   0.0   0.0
 2014 335    97  25.7  24.3  22.4  20.8  19.6  18.6  18.0  17.8   0.0   0.0
 2014 336    98  24.2  23.0  21.4  20.0  19.1  18.2  17.8  17.6   0.0   0.0
 2014 337    99  23.8  22.7  21.2  19.8  18.9  18.1  17.7  17.6   0.0   0.0
 2014 338   100  23.2  22.1  20.7  19.5  18.6  17.9  17.6  17.5   0.0   0.0
 2014 339   101  24.0  22.9  21.3  19.9  19.0  18.1  17.7  17.6   0.0   0.0
 2014 340   102  26.1  24.7  22.7  21.0  19.8  18.7  18.0  17.8   0.0   0.0
 2014 341   103  28.7  26.9  24.5  22.3  20.8  19.3  18.5  18.1   0.0   0.0
 2014 342   104  29.4  27.6  25.0  22.7  21.1  19.5  18.6  18.2   0.0   0.0
 2014 343   105  29.9  28.0  25.3  23.0  21.2  19.6  18.6  18.2   0.0   0.0
 2014 344   106  29.2  27.4  24.9  22.6  21.0  19.5  18.5  18.2   0.0   0.0
 2014 345   107  28.0  26.4  24.1  22.1  20.6  19.2  18.4  18.0   0.0   0.0
 2014 346   108  26.5  25.0  23.0  21.2  20.0  18.8  18.1  17.9   0.0   0.0
 2014 347   109  26.2  24.8  22.9  21.1  19.9  18.7  18.1  17.8   0.0   0.0
 2014 348   110  25.6  24.3  22.4  20.8  19.6  18.5  18.0  17.7   0.0   0.0
 2014 349   111  25.7  24.4  22.5  20.9  19.7  18.6  18.0  17.8   0.0   0.0
 2014 350   112  25.3  24.0  22.3  20.7  19.5  18.5  17.9  17.7   0.0   0.0
 2014 351   113  25.6  24.3  22.5  20.8  19.7  18.6  18.0  17.7   0.0   0.0
 2014 352   114  25.7  24.4  22.5  20.9  19.7  18.6  18.0  17.8   0.0   0.0
 2014 353   115  26.1  24.7  22.8  21.1  19.9  18.7  18.0  17.8   0.0   0.0
 2014 354   116  26.6  25.2  23.2  21.4  20.1  18.8  18.1  17.9   0.0   0.0
 2014 355   117  26.7  25.3  23.3  21.5  20.2  18.9  18.2  17.9   0.0   0.0
 2014 356   118  26.2  24.8  22.9  21.2  20.0  18.8  18.1  17.8   0.0   0.0
 2014 357   119  25.3  24.0  22.3  20.8  19.6  18.5  17.9  17.7   0.0   0.0
 2014 358   120  24.7  23.6  22.0  20.5  19.4  18.4  17.8  17.6   0.0   0.0
 2014 359   121  24.4  23.3  21.7  20.3  19.3  18.3  17.8  17.6   0.0   0.0
 2014 360   122  24.8  23.7  22.0  20.6  19.5  18.4  17.9  17.7   0.0   0.0
 2014 361   123  25.6  24.4  22.6  21.0  19.8  18.7  18.0  17.8   0.0   0.0
 2014 362   124  26.4  25.0  23.1  21.4  20.1  18.9  18.1  17.8   0.0   0.0
 2014 363   125  27.1  25.6  23.6  21.8  20.4  19.0  18.2  17.9   0.0   0.0
 2014 364   126  27.2  25.7  23.7  21.8  20.4  19.1  18.3  17.9   0.0   0.0
 2014 365   127  28.2  26.6  24.4  22.3  20.8  19.3  18.4  18.0   0.0   0.0
 2015 001   128  28.2  26.6  24.4  22.3  20.8  19.3  18.4  18.0   0.0   0.0
 2015 002   129  27.5  26.0  23.9  22.0  20.5  19.1  18.3  18.0   0.0   0.0
 2015 003   130  26.7  25.3  23.4  21.6  20.3  18.9  18.2  17.9   0.0   0.0
 2015 004   131  27.0  25.6  23.6  21.8  20.4  19.0  18.2  17.9   0.0   0.0
 2015 005   132  26.8  25.4  23.4  21.6  20.3  19.0  18.2  17.9   0.0   0.0
 2015 006   133  27.3  25.9  23.8  21.9  20.5  19.1  18.3  17.9   0.0   0.0
 2015 007   134  27.3  25.8  23.8  21.9  20.5  19.1  18.3  17.9   0.0   0.0
 2015 008   135  27.3  25.8  23.8  21.9  20.5  19.1  18.3  17.9   0.0   0.0
 2015 009   136  27.0  25.6  23.7  21.8  20.4  19.1  18.2  17.9   0.0   0.0
 2015 010   137  27.1  25.7  23.7  21.9  20.5  19.1  18.3  17.9   0.0   0.0
 2015 011   138  25.9  24.7  22.9  21.3  20.0  18.8  18.1  17.8   0.0   0.0
 2015 012   139  27.4  25.9  23.9  22.0  20.6  19.2  18.3  18.0   0.0   0.0
 2015 013   140  27.6  26.1  24.1  22.1  20.7  19.2  18.3  18.0   0.0   0.0
 2015 014   141  27.1  25.7  23.8  21.9  20.5  19.1  18.3  17.9   0.0   0.0
 2015 015   142  26.6  25.3  23.4  21.7  20.3  19.0  18.2  17.9   0.0   0.0
 2015 016   143  26.9  25.5  23.6  21.8  20.5  19.1  18.3  17.9   0.0   0.0
 2015 017   144  26.5  25.2  23.4  21.6  20.3  19.0  18.2  17.9   0.0   0.0
 2015 018   145  26.5  25.2  23.4  21.7  20.4  19.0  18.2  17.9   0.0   0.0
 2015 019   146  27.5  26.1  24.1  22.2  20.8  19.3  18.4  18.0   0.0   0.0
 2015 020   147  27.4  26.0  24.0  22.1  20.7  19.3  18.4  18.0   0.0   0.0
 2015 021   148  27.3  25.9  24.0  22.1  20.7  19.2  18.4  18.0   0.0   0.0
 2015 022   149  26.8  25.5  23.6  21.9  20.5  19.1  18.3  17.9   0.0   0.0
 2015 023   150  26.7  25.4  23.6  21.8  20.5  19.1  18.3  17.9   0.0   0.0
 2015 024   151  26.2  25.0  23.3  21.6  20.3  19.0  18.2  17.9   0.0   0.0
 2015 025   152  26.7  25.4  23.6  21.9  20.5  19.1  18.3  17.9   0.0   0.0
 2015 026   153  27.7  26.3  24.3  22.4  20.9  19.4  18.4  18.0   0.0   0.0
 2015 027   154  29.0  27.4  25.2  23.1  21.4  19.7  18.7  18.2   0.0   0.0
 2015 028   155  29.0  27.4  25.2  23.1  21.4  19.7  18.7  18.2   0.0   0.0
 2015 029   156  28.3  26.9  24.8  22.8  21.3  19.6  18.6  18.2   0.0   0.0
