*WARNING DETAIL FILE

******************************************************************************

<<<<<<< HEAD
*DSSAT Cropping System Model Ver. 4.0.2.000               Sep 01, 2016; 12:39:21
=======
<<<<<<< HEAD
*DSSAT Cropping System Model Ver. 4.0.2.000               Sep 01, 2016; 11:03:15

*RUN   1        : UYSB                    
 MODEL          : CRGRO040 - Soybean         
 EXPERIMENT     : UYSB0622 SB    late to create DSS                             
 TREATMENT  1   : UYSB                    


 SOILDY  YEAR DOY = 2000 241
 Surface runoff curve number has been changed from  10.0 to  25.0.             

 IPSOIL  YEAR DOY = 2000 241
=======
*DSSAT Cropping System Model Ver. 4.0.2.000               Sep 01, 2016; 11:12:40
>>>>>>> origin/master

*RUN   1        : UYSB                    
 MODEL          : CRGRO040 - Soybean         
 EXPERIMENT     : UYSB0663 SB    late to create DSS                             
 TREATMENT  1   : UYSB                    


 SOILDY  YEAR DOY = 1990 241
 Surface runoff curve number has been changed from  10.0 to  25.0.             

 IPSOIL  YEAR DOY = 1990 241
>>>>>>> origin/master
 File does not exist:                                                          
 SOILN040.SOL                                                                  
 Default residue characteristics will be used.                                 

<<<<<<< HEAD
 SOILNI  YEAR DOY = 2000 241
=======
 SOILNI  YEAR DOY = 1990 241
>>>>>>> origin/master
 Warning: The initialized C:N ratio of the soil organic                        
 matter (humus) in layer   1 is unlikely:      9.1                             
 A C:N ratio of 10.0 will be used to calculate initial soil organic N.         
 Please check your SOIL.SOL file.                                              

<<<<<<< HEAD
 SOILNI  YEAR DOY = 2000 241
=======
 SOILNI  YEAR DOY = 1990 241
>>>>>>> origin/master
 Warning: The initialized C:N ratio of the soil organic                        
 matter (humus) in layer   2 is unlikely:      9.1                             
 A C:N ratio of 10.0 will be used to calculate initial soil organic N.         
 Please check your SOIL.SOL file.                                              

<<<<<<< HEAD
 SOILNI  YEAR DOY = 2000 241
=======
 SOILNI  YEAR DOY = 1990 241
>>>>>>> origin/master
 Warning: The initialized C:N ratio of the soil organic                        
 matter (humus) in layer   3 is unlikely:      9.1                             
 A C:N ratio of 10.0 will be used to calculate initial soil organic N.         
 Please check your SOIL.SOL file.                                              

<<<<<<< HEAD
 SOILNI  YEAR DOY = 2000 241
=======
 SOILNI  YEAR DOY = 1990 241
>>>>>>> origin/master
 Warning: The initialized C:N ratio of the soil organic                        
 matter (humus) in layer   4 is unlikely:      9.7                             
 A C:N ratio of 10.0 will be used to calculate initial soil organic N.         
 Please check your SOIL.SOL file.                                              

<<<<<<< HEAD
 SOILNI  YEAR DOY = 2000 241
=======
 SOILNI  YEAR DOY = 1990 241
>>>>>>> origin/master
 Warning: The initialized C:N ratio of the soil organic                        
 matter (humus) in layer   5 is unlikely:      8.6                             
 A C:N ratio of 10.0 will be used to calculate initial soil organic N.         
 Please check your SOIL.SOL file.                                              

<<<<<<< HEAD
 SOILNI  YEAR DOY = 2000 241
=======
 SOILNI  YEAR DOY = 1990 241
>>>>>>> origin/master
 Warning: The initialized C:N ratio of the soil organic                        
 matter (humus) in layer   6 is unlikely:      7.3                             
 A C:N ratio of 10.0 will be used to calculate initial soil organic N.         
 Please check your SOIL.SOL file.                                              

<<<<<<< HEAD
 SOILNI  YEAR DOY = 2000 241
=======
 SOILNI  YEAR DOY = 1990 241
>>>>>>> origin/master
 Warning: The initialized C:N ratio of the soil organic                        
 matter (humus) in layer   7 is unlikely:      8.8                             
 A C:N ratio of 10.0 will be used to calculate initial soil organic N.         
 Please check your SOIL.SOL file.                                              

******************************************************************************

<<<<<<< HEAD
*DSSAT Cropping System Model Ver. 4.0.2.000               Sep 01, 2016; 12:39:21
=======
<<<<<<< HEAD
*DSSAT Cropping System Model Ver. 4.0.2.000               Sep 01, 2016; 11:03:15

*RUN   2        : UYSB                    
 MODEL          : CRGRO040 - Soybean         
 EXPERIMENT     : UYSB0622 SB    late to create DSS                             
 TREATMENT  1   : UYSB                    


 SOILNI  YEAR DOY = 2001 241
=======
*DSSAT Cropping System Model Ver. 4.0.2.000               Sep 01, 2016; 11:12:40
>>>>>>> origin/master

*RUN   2        : UYSB                    
 MODEL          : CRGRO040 - Soybean         
 EXPERIMENT     : UYSB0663 SB    late to create DSS                             
 TREATMENT  1   : UYSB                    


 SOILNI  YEAR DOY = 1991 241
>>>>>>> origin/master
 Warning: The initialized C:N ratio of the soil organic                        
 matter (humus) in layer   1 is unlikely:      9.1                             
 A C:N ratio of 10.0 will be used to calculate initial soil organic N.         
 Please check your SOIL.SOL file.                                              

<<<<<<< HEAD
 SOILNI  YEAR DOY = 2001 241
=======
 SOILNI  YEAR DOY = 1991 241
>>>>>>> origin/master
 Warning: The initialized C:N ratio of the soil organic                        
 matter (humus) in layer   2 is unlikely:      9.1                             
 A C:N ratio of 10.0 will be used to calculate initial soil organic N.         
 Please check your SOIL.SOL file.                                              

<<<<<<< HEAD
 SOILNI  YEAR DOY = 2001 241
=======
 SOILNI  YEAR DOY = 1991 241
>>>>>>> origin/master
 Warning: The initialized C:N ratio of the soil organic                        
 matter (humus) in layer   3 is unlikely:      9.1                             
 A C:N ratio of 10.0 will be used to calculate initial soil organic N.         
 Please check your SOIL.SOL file.                                              

<<<<<<< HEAD
 SOILNI  YEAR DOY = 2001 241
=======
 SOILNI  YEAR DOY = 1991 241
>>>>>>> origin/master
 Warning: The initialized C:N ratio of the soil organic                        
 matter (humus) in layer   4 is unlikely:      9.7                             
 A C:N ratio of 10.0 will be used to calculate initial soil organic N.         
 Please check your SOIL.SOL file.                                              

<<<<<<< HEAD
 SOILNI  YEAR DOY = 2001 241
=======
 SOILNI  YEAR DOY = 1991 241
>>>>>>> origin/master
 Warning: The initialized C:N ratio of the soil organic                        
 matter (humus) in layer   5 is unlikely:      8.6                             
 A C:N ratio of 10.0 will be used to calculate initial soil organic N.         
 Please check your SOIL.SOL file.                                              

<<<<<<< HEAD
 SOILNI  YEAR DOY = 2001 241
=======
 SOILNI  YEAR DOY = 1991 241
>>>>>>> origin/master
 Warning: The initialized C:N ratio of the soil organic                        
 matter (humus) in layer   6 is unlikely:      7.3                             
 A C:N ratio of 10.0 will be used to calculate initial soil organic N.         
 Please check your SOIL.SOL file.                                              

<<<<<<< HEAD
 SOILNI  YEAR DOY = 2001 241
=======
 SOILNI  YEAR DOY = 1991 241
>>>>>>> origin/master
 Warning: The initialized C:N ratio of the soil organic                        
 matter (humus) in layer   7 is unlikely:      8.8                             
 A C:N ratio of 10.0 will be used to calculate initial soil organic N.         
 Please check your SOIL.SOL file.                                              

******************************************************************************

<<<<<<< HEAD
*DSSAT Cropping System Model Ver. 4.0.2.000               Sep 01, 2016; 12:39:21
=======
<<<<<<< HEAD
*DSSAT Cropping System Model Ver. 4.0.2.000               Sep 01, 2016; 11:03:15

*RUN   3        : UYSB                    
 MODEL          : CRGRO040 - Soybean         
 EXPERIMENT     : UYSB0622 SB    late to create DSS                             
 TREATMENT  1   : UYSB                    


 SOILNI  YEAR DOY = 2002 241
=======
*DSSAT Cropping System Model Ver. 4.0.2.000               Sep 01, 2016; 11:12:40
>>>>>>> origin/master

*RUN   3        : UYSB                    
 MODEL          : CRGRO040 - Soybean         
 EXPERIMENT     : UYSB0663 SB    late to create DSS                             
 TREATMENT  1   : UYSB                    


 SOILNI  YEAR DOY = 1992 241
>>>>>>> origin/master
 Warning: The initialized C:N ratio of the soil organic                        
 matter (humus) in layer   1 is unlikely:      9.1                             
 A C:N ratio of 10.0 will be used to calculate initial soil organic N.         
 Please check your SOIL.SOL file.                                              

<<<<<<< HEAD
 SOILNI  YEAR DOY = 2002 241
=======
 SOILNI  YEAR DOY = 1992 241
>>>>>>> origin/master
 Warning: The initialized C:N ratio of the soil organic                        
 matter (humus) in layer   2 is unlikely:      9.1                             
 A C:N ratio of 10.0 will be used to calculate initial soil organic N.         
 Please check your SOIL.SOL file.                                              

<<<<<<< HEAD
 SOILNI  YEAR DOY = 2002 241
=======
 SOILNI  YEAR DOY = 1992 241
>>>>>>> origin/master
 Warning: The initialized C:N ratio of the soil organic                        
 matter (humus) in layer   3 is unlikely:      9.1                             
 A C:N ratio of 10.0 will be used to calculate initial soil organic N.         
 Please check your SOIL.SOL file.                                              

<<<<<<< HEAD
 SOILNI  YEAR DOY = 2002 241
=======
 SOILNI  YEAR DOY = 1992 241
>>>>>>> origin/master
 Warning: The initialized C:N ratio of the soil organic                        
 matter (humus) in layer   4 is unlikely:      9.7                             
 A C:N ratio of 10.0 will be used to calculate initial soil organic N.         
 Please check your SOIL.SOL file.                                              

<<<<<<< HEAD
 SOILNI  YEAR DOY = 2002 241
=======
 SOILNI  YEAR DOY = 1992 241
>>>>>>> origin/master
 Warning: The initialized C:N ratio of the soil organic                        
 matter (humus) in layer   5 is unlikely:      8.6                             
 A C:N ratio of 10.0 will be used to calculate initial soil organic N.         
 Please check your SOIL.SOL file.                                              

<<<<<<< HEAD
 SOILNI  YEAR DOY = 2002 241
=======
 SOILNI  YEAR DOY = 1992 241
>>>>>>> origin/master
 Warning: The initialized C:N ratio of the soil organic                        
 matter (humus) in layer   6 is unlikely:      7.3                             
 A C:N ratio of 10.0 will be used to calculate initial soil organic N.         
 Please check your SOIL.SOL file.                                              

<<<<<<< HEAD
 SOILNI  YEAR DOY = 2002 241
 Warning: The initialized C:N ratio of the soil organic                        
 matter (humus) in layer   7 is unlikely:      8.8                             
 A C:N ratio of 10.0 will be used to calculate initial soil organic N.         
 Please check your SOIL.SOL file.                                              

******************************************************************************

*DSSAT Cropping System Model Ver. 4.0.2.000               Sep 01, 2016; 11:03:15

*RUN   4        : UYSB                    
 MODEL          : CRGRO040 - Soybean         
 EXPERIMENT     : UYSB0622 SB    late to create DSS                             
 TREATMENT  1   : UYSB                    


 SOILNI  YEAR DOY = 2003 241
 Warning: The initialized C:N ratio of the soil organic                        
 matter (humus) in layer   1 is unlikely:      9.1                             
 A C:N ratio of 10.0 will be used to calculate initial soil organic N.         
 Please check your SOIL.SOL file.                                              

 SOILNI  YEAR DOY = 2003 241
 Warning: The initialized C:N ratio of the soil organic                        
 matter (humus) in layer   2 is unlikely:      9.1                             
 A C:N ratio of 10.0 will be used to calculate initial soil organic N.         
 Please check your SOIL.SOL file.                                              

 SOILNI  YEAR DOY = 2003 241
 Warning: The initialized C:N ratio of the soil organic                        
 matter (humus) in layer   3 is unlikely:      9.1                             
 A C:N ratio of 10.0 will be used to calculate initial soil organic N.         
 Please check your SOIL.SOL file.                                              

 SOILNI  YEAR DOY = 2003 241
 Warning: The initialized C:N ratio of the soil organic                        
 matter (humus) in layer   4 is unlikely:      9.7                             
 A C:N ratio of 10.0 will be used to calculate initial soil organic N.         
 Please check your SOIL.SOL file.                                              

 SOILNI  YEAR DOY = 2003 241
 Warning: The initialized C:N ratio of the soil organic                        
 matter (humus) in layer   5 is unlikely:      8.6                             
 A C:N ratio of 10.0 will be used to calculate initial soil organic N.         
 Please check your SOIL.SOL file.                                              

 SOILNI  YEAR DOY = 2003 241
 Warning: The initialized C:N ratio of the soil organic                        
 matter (humus) in layer   6 is unlikely:      7.3                             
 A C:N ratio of 10.0 will be used to calculate initial soil organic N.         
 Please check your SOIL.SOL file.                                              

 SOILNI  YEAR DOY = 2003 241
 Warning: The initialized C:N ratio of the soil organic                        
 matter (humus) in layer   7 is unlikely:      8.8                             
 A C:N ratio of 10.0 will be used to calculate initial soil organic N.         
 Please check your SOIL.SOL file.                                              

******************************************************************************

*DSSAT Cropping System Model Ver. 4.0.2.000               Sep 01, 2016; 11:03:15

*RUN   5        : UYSB                    
 MODEL          : CRGRO040 - Soybean         
 EXPERIMENT     : UYSB0622 SB    late to create DSS                             
 TREATMENT  1   : UYSB                    


 SOILNI  YEAR DOY = 2004 241
 Warning: The initialized C:N ratio of the soil organic                        
 matter (humus) in layer   1 is unlikely:      9.1                             
 A C:N ratio of 10.0 will be used to calculate initial soil organic N.         
 Please check your SOIL.SOL file.                                              

 SOILNI  YEAR DOY = 2004 241
 Warning: The initialized C:N ratio of the soil organic                        
 matter (humus) in layer   2 is unlikely:      9.1                             
 A C:N ratio of 10.0 will be used to calculate initial soil organic N.         
 Please check your SOIL.SOL file.                                              

 SOILNI  YEAR DOY = 2004 241
 Warning: The initialized C:N ratio of the soil organic                        
 matter (humus) in layer   3 is unlikely:      9.1                             
 A C:N ratio of 10.0 will be used to calculate initial soil organic N.         
 Please check your SOIL.SOL file.                                              

 SOILNI  YEAR DOY = 2004 241
 Warning: The initialized C:N ratio of the soil organic                        
 matter (humus) in layer   4 is unlikely:      9.7                             
 A C:N ratio of 10.0 will be used to calculate initial soil organic N.         
 Please check your SOIL.SOL file.                                              

 SOILNI  YEAR DOY = 2004 241
 Warning: The initialized C:N ratio of the soil organic                        
 matter (humus) in layer   5 is unlikely:      8.6                             
 A C:N ratio of 10.0 will be used to calculate initial soil organic N.         
 Please check your SOIL.SOL file.                                              

 SOILNI  YEAR DOY = 2004 241
 Warning: The initialized C:N ratio of the soil organic                        
 matter (humus) in layer   6 is unlikely:      7.3                             
 A C:N ratio of 10.0 will be used to calculate initial soil organic N.         
 Please check your SOIL.SOL file.                                              

 SOILNI  YEAR DOY = 2004 241
 Warning: The initialized C:N ratio of the soil organic                        
 matter (humus) in layer   7 is unlikely:      8.8                             
 A C:N ratio of 10.0 will be used to calculate initial soil organic N.         
 Please check your SOIL.SOL file.                                              

******************************************************************************

*DSSAT Cropping System Model Ver. 4.0.2.000               Sep 01, 2016; 11:03:15

*RUN   6        : UYSB                    
 MODEL          : CRGRO040 - Soybean         
 EXPERIMENT     : UYSB0622 SB    late to create DSS                             
 TREATMENT  1   : UYSB                    


 SOILNI  YEAR DOY = 2005 241
 Warning: The initialized C:N ratio of the soil organic                        
 matter (humus) in layer   1 is unlikely:      9.1                             
 A C:N ratio of 10.0 will be used to calculate initial soil organic N.         
 Please check your SOIL.SOL file.                                              

 SOILNI  YEAR DOY = 2005 241
 Warning: The initialized C:N ratio of the soil organic                        
 matter (humus) in layer   2 is unlikely:      9.1                             
 A C:N ratio of 10.0 will be used to calculate initial soil organic N.         
 Please check your SOIL.SOL file.                                              

 SOILNI  YEAR DOY = 2005 241
 Warning: The initialized C:N ratio of the soil organic                        
 matter (humus) in layer   3 is unlikely:      9.1                             
 A C:N ratio of 10.0 will be used to calculate initial soil organic N.         
 Please check your SOIL.SOL file.                                              

 SOILNI  YEAR DOY = 2005 241
 Warning: The initialized C:N ratio of the soil organic                        
 matter (humus) in layer   4 is unlikely:      9.7                             
 A C:N ratio of 10.0 will be used to calculate initial soil organic N.         
 Please check your SOIL.SOL file.                                              

 SOILNI  YEAR DOY = 2005 241
 Warning: The initialized C:N ratio of the soil organic                        
 matter (humus) in layer   5 is unlikely:      8.6                             
 A C:N ratio of 10.0 will be used to calculate initial soil organic N.         
 Please check your SOIL.SOL file.                                              

 SOILNI  YEAR DOY = 2005 241
 Warning: The initialized C:N ratio of the soil organic                        
 matter (humus) in layer   6 is unlikely:      7.3                             
 A C:N ratio of 10.0 will be used to calculate initial soil organic N.         
 Please check your SOIL.SOL file.                                              

 SOILNI  YEAR DOY = 2005 241
 Warning: The initialized C:N ratio of the soil organic                        
 matter (humus) in layer   7 is unlikely:      8.8                             
 A C:N ratio of 10.0 will be used to calculate initial soil organic N.         
 Please check your SOIL.SOL file.                                              

******************************************************************************

*DSSAT Cropping System Model Ver. 4.0.2.000               Sep 01, 2016; 11:03:15

*RUN   7        : UYSB                    
 MODEL          : CRGRO040 - Soybean         
 EXPERIMENT     : UYSB0622 SB    late to create DSS                             
 TREATMENT  1   : UYSB                    


 SOILNI  YEAR DOY = 2006 241
 Warning: The initialized C:N ratio of the soil organic                        
 matter (humus) in layer   1 is unlikely:      9.1                             
 A C:N ratio of 10.0 will be used to calculate initial soil organic N.         
 Please check your SOIL.SOL file.                                              

 SOILNI  YEAR DOY = 2006 241
 Warning: The initialized C:N ratio of the soil organic                        
 matter (humus) in layer   2 is unlikely:      9.1                             
 A C:N ratio of 10.0 will be used to calculate initial soil organic N.         
 Please check your SOIL.SOL file.                                              

 SOILNI  YEAR DOY = 2006 241
 Warning: The initialized C:N ratio of the soil organic                        
 matter (humus) in layer   3 is unlikely:      9.1                             
 A C:N ratio of 10.0 will be used to calculate initial soil organic N.         
 Please check your SOIL.SOL file.                                              

 SOILNI  YEAR DOY = 2006 241
 Warning: The initialized C:N ratio of the soil organic                        
 matter (humus) in layer   4 is unlikely:      9.7                             
 A C:N ratio of 10.0 will be used to calculate initial soil organic N.         
 Please check your SOIL.SOL file.                                              

 SOILNI  YEAR DOY = 2006 241
 Warning: The initialized C:N ratio of the soil organic                        
 matter (humus) in layer   5 is unlikely:      8.6                             
 A C:N ratio of 10.0 will be used to calculate initial soil organic N.         
 Please check your SOIL.SOL file.                                              

 SOILNI  YEAR DOY = 2006 241
 Warning: The initialized C:N ratio of the soil organic                        
 matter (humus) in layer   6 is unlikely:      7.3                             
 A C:N ratio of 10.0 will be used to calculate initial soil organic N.         
 Please check your SOIL.SOL file.                                              

 SOILNI  YEAR DOY = 2006 241
 Warning: The initialized C:N ratio of the soil organic                        
 matter (humus) in layer   7 is unlikely:      8.8                             
 A C:N ratio of 10.0 will be used to calculate initial soil organic N.         
 Please check your SOIL.SOL file.                                              

******************************************************************************

*DSSAT Cropping System Model Ver. 4.0.2.000               Sep 01, 2016; 11:03:15

*RUN   8        : UYSB                    
 MODEL          : CRGRO040 - Soybean         
 EXPERIMENT     : UYSB0622 SB    late to create DSS                             
 TREATMENT  1   : UYSB                    


 SOILNI  YEAR DOY = 2007 241
 Warning: The initialized C:N ratio of the soil organic                        
 matter (humus) in layer   1 is unlikely:      9.1                             
 A C:N ratio of 10.0 will be used to calculate initial soil organic N.         
 Please check your SOIL.SOL file.                                              

 SOILNI  YEAR DOY = 2007 241
 Warning: The initialized C:N ratio of the soil organic                        
 matter (humus) in layer   2 is unlikely:      9.1                             
 A C:N ratio of 10.0 will be used to calculate initial soil organic N.         
 Please check your SOIL.SOL file.                                              

 SOILNI  YEAR DOY = 2007 241
 Warning: The initialized C:N ratio of the soil organic                        
 matter (humus) in layer   3 is unlikely:      9.1                             
 A C:N ratio of 10.0 will be used to calculate initial soil organic N.         
 Please check your SOIL.SOL file.                                              

 SOILNI  YEAR DOY = 2007 241
 Warning: The initialized C:N ratio of the soil organic                        
 matter (humus) in layer   4 is unlikely:      9.7                             
 A C:N ratio of 10.0 will be used to calculate initial soil organic N.         
 Please check your SOIL.SOL file.                                              

 SOILNI  YEAR DOY = 2007 241
 Warning: The initialized C:N ratio of the soil organic                        
 matter (humus) in layer   5 is unlikely:      8.6                             
 A C:N ratio of 10.0 will be used to calculate initial soil organic N.         
 Please check your SOIL.SOL file.                                              

 SOILNI  YEAR DOY = 2007 241
 Warning: The initialized C:N ratio of the soil organic                        
 matter (humus) in layer   6 is unlikely:      7.3                             
 A C:N ratio of 10.0 will be used to calculate initial soil organic N.         
 Please check your SOIL.SOL file.                                              

 SOILNI  YEAR DOY = 2007 241
 Warning: The initialized C:N ratio of the soil organic                        
 matter (humus) in layer   7 is unlikely:      8.8                             
 A C:N ratio of 10.0 will be used to calculate initial soil organic N.         
 Please check your SOIL.SOL file.                                              

******************************************************************************

*DSSAT Cropping System Model Ver. 4.0.2.000               Sep 01, 2016; 11:03:15

*RUN   9        : UYSB                    
 MODEL          : CRGRO040 - Soybean         
 EXPERIMENT     : UYSB0622 SB    late to create DSS                             
 TREATMENT  1   : UYSB                    


 SOILNI  YEAR DOY = 2008 241
 Warning: The initialized C:N ratio of the soil organic                        
 matter (humus) in layer   1 is unlikely:      9.1                             
 A C:N ratio of 10.0 will be used to calculate initial soil organic N.         
 Please check your SOIL.SOL file.                                              

 SOILNI  YEAR DOY = 2008 241
 Warning: The initialized C:N ratio of the soil organic                        
 matter (humus) in layer   2 is unlikely:      9.1                             
 A C:N ratio of 10.0 will be used to calculate initial soil organic N.         
 Please check your SOIL.SOL file.                                              

 SOILNI  YEAR DOY = 2008 241
 Warning: The initialized C:N ratio of the soil organic                        
 matter (humus) in layer   3 is unlikely:      9.1                             
 A C:N ratio of 10.0 will be used to calculate initial soil organic N.         
 Please check your SOIL.SOL file.                                              

 SOILNI  YEAR DOY = 2008 241
 Warning: The initialized C:N ratio of the soil organic                        
 matter (humus) in layer   4 is unlikely:      9.7                             
 A C:N ratio of 10.0 will be used to calculate initial soil organic N.         
 Please check your SOIL.SOL file.                                              

 SOILNI  YEAR DOY = 2008 241
 Warning: The initialized C:N ratio of the soil organic                        
 matter (humus) in layer   5 is unlikely:      8.6                             
 A C:N ratio of 10.0 will be used to calculate initial soil organic N.         
 Please check your SOIL.SOL file.                                              

 SOILNI  YEAR DOY = 2008 241
 Warning: The initialized C:N ratio of the soil organic                        
 matter (humus) in layer   6 is unlikely:      7.3                             
 A C:N ratio of 10.0 will be used to calculate initial soil organic N.         
 Please check your SOIL.SOL file.                                              

 SOILNI  YEAR DOY = 2008 241
 Warning: The initialized C:N ratio of the soil organic                        
 matter (humus) in layer   7 is unlikely:      8.8                             
 A C:N ratio of 10.0 will be used to calculate initial soil organic N.         
 Please check your SOIL.SOL file.                                              

******************************************************************************

*DSSAT Cropping System Model Ver. 4.0.2.000               Sep 01, 2016; 11:03:15

*RUN  10        : UYSB                    
 MODEL          : CRGRO040 - Soybean         
 EXPERIMENT     : UYSB0622 SB    late to create DSS                             
 TREATMENT  1   : UYSB                    


 SOILNI  YEAR DOY = 2009 241
 Warning: The initialized C:N ratio of the soil organic                        
 matter (humus) in layer   1 is unlikely:      9.1                             
 A C:N ratio of 10.0 will be used to calculate initial soil organic N.         
 Please check your SOIL.SOL file.                                              

 SOILNI  YEAR DOY = 2009 241
 Warning: The initialized C:N ratio of the soil organic                        
 matter (humus) in layer   2 is unlikely:      9.1                             
 A C:N ratio of 10.0 will be used to calculate initial soil organic N.         
 Please check your SOIL.SOL file.                                              

 SOILNI  YEAR DOY = 2009 241
 Warning: The initialized C:N ratio of the soil organic                        
 matter (humus) in layer   3 is unlikely:      9.1                             
 A C:N ratio of 10.0 will be used to calculate initial soil organic N.         
 Please check your SOIL.SOL file.                                              

 SOILNI  YEAR DOY = 2009 241
 Warning: The initialized C:N ratio of the soil organic                        
 matter (humus) in layer   4 is unlikely:      9.7                             
 A C:N ratio of 10.0 will be used to calculate initial soil organic N.         
 Please check your SOIL.SOL file.                                              

 SOILNI  YEAR DOY = 2009 241
 Warning: The initialized C:N ratio of the soil organic                        
 matter (humus) in layer   5 is unlikely:      8.6                             
 A C:N ratio of 10.0 will be used to calculate initial soil organic N.         
 Please check your SOIL.SOL file.                                              

 SOILNI  YEAR DOY = 2009 241
 Warning: The initialized C:N ratio of the soil organic                        
 matter (humus) in layer   6 is unlikely:      7.3                             
 A C:N ratio of 10.0 will be used to calculate initial soil organic N.         
 Please check your SOIL.SOL file.                                              

 SOILNI  YEAR DOY = 2009 241
 Warning: The initialized C:N ratio of the soil organic                        
 matter (humus) in layer   7 is unlikely:      8.8                             
 A C:N ratio of 10.0 will be used to calculate initial soil organic N.         
 Please check your SOIL.SOL file.                                              

******************************************************************************

*DSSAT Cropping System Model Ver. 4.0.2.000               Sep 01, 2016; 11:03:15

*RUN  11        : UYSB                    
 MODEL          : CRGRO040 - Soybean         
 EXPERIMENT     : UYSB0622 SB    late to create DSS                             
 TREATMENT  1   : UYSB                    


 SOILNI  YEAR DOY = 2010 241
 Warning: The initialized C:N ratio of the soil organic                        
 matter (humus) in layer   1 is unlikely:      9.1                             
 A C:N ratio of 10.0 will be used to calculate initial soil organic N.         
 Please check your SOIL.SOL file.                                              

 SOILNI  YEAR DOY = 2010 241
 Warning: The initialized C:N ratio of the soil organic                        
 matter (humus) in layer   2 is unlikely:      9.1                             
 A C:N ratio of 10.0 will be used to calculate initial soil organic N.         
 Please check your SOIL.SOL file.                                              

 SOILNI  YEAR DOY = 2010 241
 Warning: The initialized C:N ratio of the soil organic                        
 matter (humus) in layer   3 is unlikely:      9.1                             
 A C:N ratio of 10.0 will be used to calculate initial soil organic N.         
 Please check your SOIL.SOL file.                                              

 SOILNI  YEAR DOY = 2010 241
 Warning: The initialized C:N ratio of the soil organic                        
 matter (humus) in layer   4 is unlikely:      9.7                             
 A C:N ratio of 10.0 will be used to calculate initial soil organic N.         
 Please check your SOIL.SOL file.                                              

 SOILNI  YEAR DOY = 2010 241
 Warning: The initialized C:N ratio of the soil organic                        
 matter (humus) in layer   5 is unlikely:      8.6                             
 A C:N ratio of 10.0 will be used to calculate initial soil organic N.         
 Please check your SOIL.SOL file.                                              

 SOILNI  YEAR DOY = 2010 241
 Warning: The initialized C:N ratio of the soil organic                        
 matter (humus) in layer   6 is unlikely:      7.3                             
 A C:N ratio of 10.0 will be used to calculate initial soil organic N.         
 Please check your SOIL.SOL file.                                              

 SOILNI  YEAR DOY = 2010 241
=======
 SOILNI  YEAR DOY = 1992 241
>>>>>>> origin/master
 Warning: The initialized C:N ratio of the soil organic                        
 matter (humus) in layer   7 is unlikely:      8.8                             
 A C:N ratio of 10.0 will be used to calculate initial soil organic N.         
 Please check your SOIL.SOL file.                                              
