*WARNING DETAIL FILE

******************************************************************************

*DSSAT Cropping System Model Ver. 4.0.2.000               Aug 19, 2016; 14:56:29

*RUN   1        : UYMZ                    
 MODEL          : MZCER040 - Maize           
 EXPERIMENT     : UYMZ0220 MZ    late to create DSS                             
 TREATMENT  1   : UYMZ                    


 SOILDY  YEAR DOY = 2000 228
 Surface runoff curve number has been changed from  10.0 to  25.0.             

 IPSOIL  YEAR DOY = 2000 228
 File does not exist:                                                          
 SOILN040.SOL                                                                  
 Default residue characteristics will be used.                                 

 SOILNI  YEAR DOY = 2000 228
 Warning: The initialized C:N ratio of the soil organic                        
 matter (humus) in layer   1 is unlikely:      9.1                             
 A C:N ratio of 10.0 will be used to calculate initial soil organic N.         
 Please check your SOIL.SOL file.                                              

 SOILNI  YEAR DOY = 2000 228
 Warning: The initialized C:N ratio of the soil organic                        
 matter (humus) in layer   2 is unlikely:      9.1                             
 A C:N ratio of 10.0 will be used to calculate initial soil organic N.         
 Please check your SOIL.SOL file.                                              

 SOILNI  YEAR DOY = 2000 228
 Warning: The initialized C:N ratio of the soil organic                        
 matter (humus) in layer   3 is unlikely:      9.1                             
 A C:N ratio of 10.0 will be used to calculate initial soil organic N.         
 Please check your SOIL.SOL file.                                              

 SOILNI  YEAR DOY = 2000 228
 Warning: The initialized C:N ratio of the soil organic                        
 matter (humus) in layer   4 is unlikely:      9.7                             
 A C:N ratio of 10.0 will be used to calculate initial soil organic N.         
 Please check your SOIL.SOL file.                                              

 SOILNI  YEAR DOY = 2000 228
 Warning: The initialized C:N ratio of the soil organic                        
 matter (humus) in layer   5 is unlikely:      8.6                             
 A C:N ratio of 10.0 will be used to calculate initial soil organic N.         
 Please check your SOIL.SOL file.                                              

 SOILNI  YEAR DOY = 2000 228
 Warning: The initialized C:N ratio of the soil organic                        
 matter (humus) in layer   6 is unlikely:      7.3                             
 A C:N ratio of 10.0 will be used to calculate initial soil organic N.         
 Please check your SOIL.SOL file.                                              

 SOILNI  YEAR DOY = 2000 228
 Warning: The initialized C:N ratio of the soil organic                        
 matter (humus) in layer   7 is unlikely:      8.8                             
 A C:N ratio of 10.0 will be used to calculate initial soil organic N.         
 Please check your SOIL.SOL file.                                              

******************************************************************************

*DSSAT Cropping System Model Ver. 4.0.2.000               Aug 19, 2016; 14:56:29

*RUN   2        : UYMZ                    
 MODEL          : MZCER040 - Maize           
 EXPERIMENT     : UYMZ0220 MZ    late to create DSS                             
 TREATMENT  1   : UYMZ                    


 SOILNI  YEAR DOY = 2001 228
 Warning: The initialized C:N ratio of the soil organic                        
 matter (humus) in layer   1 is unlikely:      9.1                             
 A C:N ratio of 10.0 will be used to calculate initial soil organic N.         
 Please check your SOIL.SOL file.                                              

 SOILNI  YEAR DOY = 2001 228
 Warning: The initialized C:N ratio of the soil organic                        
 matter (humus) in layer   2 is unlikely:      9.1                             
 A C:N ratio of 10.0 will be used to calculate initial soil organic N.         
 Please check your SOIL.SOL file.                                              

 SOILNI  YEAR DOY = 2001 228
 Warning: The initialized C:N ratio of the soil organic                        
 matter (humus) in layer   3 is unlikely:      9.1                             
 A C:N ratio of 10.0 will be used to calculate initial soil organic N.         
 Please check your SOIL.SOL file.                                              

 SOILNI  YEAR DOY = 2001 228
 Warning: The initialized C:N ratio of the soil organic                        
 matter (humus) in layer   4 is unlikely:      9.7                             
 A C:N ratio of 10.0 will be used to calculate initial soil organic N.         
 Please check your SOIL.SOL file.                                              

 SOILNI  YEAR DOY = 2001 228
 Warning: The initialized C:N ratio of the soil organic                        
 matter (humus) in layer   5 is unlikely:      8.6                             
 A C:N ratio of 10.0 will be used to calculate initial soil organic N.         
 Please check your SOIL.SOL file.                                              

 SOILNI  YEAR DOY = 2001 228
 Warning: The initialized C:N ratio of the soil organic                        
 matter (humus) in layer   6 is unlikely:      7.3                             
 A C:N ratio of 10.0 will be used to calculate initial soil organic N.         
 Please check your SOIL.SOL file.                                              

 SOILNI  YEAR DOY = 2001 228
 Warning: The initialized C:N ratio of the soil organic                        
 matter (humus) in layer   7 is unlikely:      8.8                             
 A C:N ratio of 10.0 will be used to calculate initial soil organic N.         
 Please check your SOIL.SOL file.                                              

******************************************************************************

*DSSAT Cropping System Model Ver. 4.0.2.000               Aug 19, 2016; 14:56:29

*RUN   3        : UYMZ                    
 MODEL          : MZCER040 - Maize           
 EXPERIMENT     : UYMZ0220 MZ    late to create DSS                             
 TREATMENT  1   : UYMZ                    


 SOILNI  YEAR DOY = 2002 228
 Warning: The initialized C:N ratio of the soil organic                        
 matter (humus) in layer   1 is unlikely:      9.1                             
 A C:N ratio of 10.0 will be used to calculate initial soil organic N.         
 Please check your SOIL.SOL file.                                              

 SOILNI  YEAR DOY = 2002 228
 Warning: The initialized C:N ratio of the soil organic                        
 matter (humus) in layer   2 is unlikely:      9.1                             
 A C:N ratio of 10.0 will be used to calculate initial soil organic N.         
 Please check your SOIL.SOL file.                                              

 SOILNI  YEAR DOY = 2002 228
 Warning: The initialized C:N ratio of the soil organic                        
 matter (humus) in layer   3 is unlikely:      9.1                             
 A C:N ratio of 10.0 will be used to calculate initial soil organic N.         
 Please check your SOIL.SOL file.                                              

 SOILNI  YEAR DOY = 2002 228
 Warning: The initialized C:N ratio of the soil organic                        
 matter (humus) in layer   4 is unlikely:      9.7                             
 A C:N ratio of 10.0 will be used to calculate initial soil organic N.         
 Please check your SOIL.SOL file.                                              

 SOILNI  YEAR DOY = 2002 228
 Warning: The initialized C:N ratio of the soil organic                        
 matter (humus) in layer   5 is unlikely:      8.6                             
 A C:N ratio of 10.0 will be used to calculate initial soil organic N.         
 Please check your SOIL.SOL file.                                              

 SOILNI  YEAR DOY = 2002 228
 Warning: The initialized C:N ratio of the soil organic                        
 matter (humus) in layer   6 is unlikely:      7.3                             
 A C:N ratio of 10.0 will be used to calculate initial soil organic N.         
 Please check your SOIL.SOL file.                                              

 SOILNI  YEAR DOY = 2002 228
 Warning: The initialized C:N ratio of the soil organic                        
 matter (humus) in layer   7 is unlikely:      8.8                             
 A C:N ratio of 10.0 will be used to calculate initial soil organic N.         
 Please check your SOIL.SOL file.                                              

******************************************************************************

*DSSAT Cropping System Model Ver. 4.0.2.000               Aug 19, 2016; 14:56:29

*RUN   4        : UYMZ                    
 MODEL          : MZCER040 - Maize           
 EXPERIMENT     : UYMZ0220 MZ    late to create DSS                             
 TREATMENT  1   : UYMZ                    


 SOILNI  YEAR DOY = 2003 228
 Warning: The initialized C:N ratio of the soil organic                        
 matter (humus) in layer   1 is unlikely:      9.1                             
 A C:N ratio of 10.0 will be used to calculate initial soil organic N.         
 Please check your SOIL.SOL file.                                              

 SOILNI  YEAR DOY = 2003 228
 Warning: The initialized C:N ratio of the soil organic                        
 matter (humus) in layer   2 is unlikely:      9.1                             
 A C:N ratio of 10.0 will be used to calculate initial soil organic N.         
 Please check your SOIL.SOL file.                                              

 SOILNI  YEAR DOY = 2003 228
 Warning: The initialized C:N ratio of the soil organic                        
 matter (humus) in layer   3 is unlikely:      9.1                             
 A C:N ratio of 10.0 will be used to calculate initial soil organic N.         
 Please check your SOIL.SOL file.                                              

 SOILNI  YEAR DOY = 2003 228
 Warning: The initialized C:N ratio of the soil organic                        
 matter (humus) in layer   4 is unlikely:      9.7                             
 A C:N ratio of 10.0 will be used to calculate initial soil organic N.         
 Please check your SOIL.SOL file.                                              

 SOILNI  YEAR DOY = 2003 228
 Warning: The initialized C:N ratio of the soil organic                        
 matter (humus) in layer   5 is unlikely:      8.6                             
 A C:N ratio of 10.0 will be used to calculate initial soil organic N.         
 Please check your SOIL.SOL file.                                              

 SOILNI  YEAR DOY = 2003 228
 Warning: The initialized C:N ratio of the soil organic                        
 matter (humus) in layer   6 is unlikely:      7.3                             
 A C:N ratio of 10.0 will be used to calculate initial soil organic N.         
 Please check your SOIL.SOL file.                                              

 SOILNI  YEAR DOY = 2003 228
 Warning: The initialized C:N ratio of the soil organic                        
 matter (humus) in layer   7 is unlikely:      8.8                             
 A C:N ratio of 10.0 will be used to calculate initial soil organic N.         
 Please check your SOIL.SOL file.                                              

******************************************************************************

*DSSAT Cropping System Model Ver. 4.0.2.000               Aug 19, 2016; 14:56:29

*RUN   5        : UYMZ                    
 MODEL          : MZCER040 - Maize           
 EXPERIMENT     : UYMZ0220 MZ    late to create DSS                             
 TREATMENT  1   : UYMZ                    


 SOILNI  YEAR DOY = 2004 228
 Warning: The initialized C:N ratio of the soil organic                        
 matter (humus) in layer   1 is unlikely:      9.1                             
 A C:N ratio of 10.0 will be used to calculate initial soil organic N.         
 Please check your SOIL.SOL file.                                              

 SOILNI  YEAR DOY = 2004 228
 Warning: The initialized C:N ratio of the soil organic                        
 matter (humus) in layer   2 is unlikely:      9.1                             
 A C:N ratio of 10.0 will be used to calculate initial soil organic N.         
 Please check your SOIL.SOL file.                                              

 SOILNI  YEAR DOY = 2004 228
 Warning: The initialized C:N ratio of the soil organic                        
 matter (humus) in layer   3 is unlikely:      9.1                             
 A C:N ratio of 10.0 will be used to calculate initial soil organic N.         
 Please check your SOIL.SOL file.                                              

 SOILNI  YEAR DOY = 2004 228
 Warning: The initialized C:N ratio of the soil organic                        
 matter (humus) in layer   4 is unlikely:      9.7                             
 A C:N ratio of 10.0 will be used to calculate initial soil organic N.         
 Please check your SOIL.SOL file.                                              

 SOILNI  YEAR DOY = 2004 228
 Warning: The initialized C:N ratio of the soil organic                        
 matter (humus) in layer   5 is unlikely:      8.6                             
 A C:N ratio of 10.0 will be used to calculate initial soil organic N.         
 Please check your SOIL.SOL file.                                              

 SOILNI  YEAR DOY = 2004 228
 Warning: The initialized C:N ratio of the soil organic                        
 matter (humus) in layer   6 is unlikely:      7.3                             
 A C:N ratio of 10.0 will be used to calculate initial soil organic N.         
 Please check your SOIL.SOL file.                                              

 SOILNI  YEAR DOY = 2004 228
 Warning: The initialized C:N ratio of the soil organic                        
 matter (humus) in layer   7 is unlikely:      8.8                             
 A C:N ratio of 10.0 will be used to calculate initial soil organic N.         
 Please check your SOIL.SOL file.                                              

******************************************************************************

*DSSAT Cropping System Model Ver. 4.0.2.000               Aug 19, 2016; 14:56:29

*RUN   6        : UYMZ                    
 MODEL          : MZCER040 - Maize           
 EXPERIMENT     : UYMZ0220 MZ    late to create DSS                             
 TREATMENT  1   : UYMZ                    


 SOILNI  YEAR DOY = 2005 228
 Warning: The initialized C:N ratio of the soil organic                        
 matter (humus) in layer   1 is unlikely:      9.1                             
 A C:N ratio of 10.0 will be used to calculate initial soil organic N.         
 Please check your SOIL.SOL file.                                              

 SOILNI  YEAR DOY = 2005 228
 Warning: The initialized C:N ratio of the soil organic                        
 matter (humus) in layer   2 is unlikely:      9.1                             
 A C:N ratio of 10.0 will be used to calculate initial soil organic N.         
 Please check your SOIL.SOL file.                                              

 SOILNI  YEAR DOY = 2005 228
 Warning: The initialized C:N ratio of the soil organic                        
 matter (humus) in layer   3 is unlikely:      9.1                             
 A C:N ratio of 10.0 will be used to calculate initial soil organic N.         
 Please check your SOIL.SOL file.                                              

 SOILNI  YEAR DOY = 2005 228
 Warning: The initialized C:N ratio of the soil organic                        
 matter (humus) in layer   4 is unlikely:      9.7                             
 A C:N ratio of 10.0 will be used to calculate initial soil organic N.         
 Please check your SOIL.SOL file.                                              

 SOILNI  YEAR DOY = 2005 228
 Warning: The initialized C:N ratio of the soil organic                        
 matter (humus) in layer   5 is unlikely:      8.6                             
 A C:N ratio of 10.0 will be used to calculate initial soil organic N.         
 Please check your SOIL.SOL file.                                              

 SOILNI  YEAR DOY = 2005 228
 Warning: The initialized C:N ratio of the soil organic                        
 matter (humus) in layer   6 is unlikely:      7.3                             
 A C:N ratio of 10.0 will be used to calculate initial soil organic N.         
 Please check your SOIL.SOL file.                                              

 SOILNI  YEAR DOY = 2005 228
 Warning: The initialized C:N ratio of the soil organic                        
 matter (humus) in layer   7 is unlikely:      8.8                             
 A C:N ratio of 10.0 will be used to calculate initial soil organic N.         
 Please check your SOIL.SOL file.                                              

******************************************************************************

*DSSAT Cropping System Model Ver. 4.0.2.000               Aug 19, 2016; 14:56:29

*RUN   7        : UYMZ                    
 MODEL          : MZCER040 - Maize           
 EXPERIMENT     : UYMZ0220 MZ    late to create DSS                             
 TREATMENT  1   : UYMZ                    


 SOILNI  YEAR DOY = 2006 228
 Warning: The initialized C:N ratio of the soil organic                        
 matter (humus) in layer   1 is unlikely:      9.1                             
 A C:N ratio of 10.0 will be used to calculate initial soil organic N.         
 Please check your SOIL.SOL file.                                              

 SOILNI  YEAR DOY = 2006 228
 Warning: The initialized C:N ratio of the soil organic                        
 matter (humus) in layer   2 is unlikely:      9.1                             
 A C:N ratio of 10.0 will be used to calculate initial soil organic N.         
 Please check your SOIL.SOL file.                                              

 SOILNI  YEAR DOY = 2006 228
 Warning: The initialized C:N ratio of the soil organic                        
 matter (humus) in layer   3 is unlikely:      9.1                             
 A C:N ratio of 10.0 will be used to calculate initial soil organic N.         
 Please check your SOIL.SOL file.                                              

 SOILNI  YEAR DOY = 2006 228
 Warning: The initialized C:N ratio of the soil organic                        
 matter (humus) in layer   4 is unlikely:      9.7                             
 A C:N ratio of 10.0 will be used to calculate initial soil organic N.         
 Please check your SOIL.SOL file.                                              

 SOILNI  YEAR DOY = 2006 228
 Warning: The initialized C:N ratio of the soil organic                        
 matter (humus) in layer   5 is unlikely:      8.6                             
 A C:N ratio of 10.0 will be used to calculate initial soil organic N.         
 Please check your SOIL.SOL file.                                              

 SOILNI  YEAR DOY = 2006 228
 Warning: The initialized C:N ratio of the soil organic                        
 matter (humus) in layer   6 is unlikely:      7.3                             
 A C:N ratio of 10.0 will be used to calculate initial soil organic N.         
 Please check your SOIL.SOL file.                                              

 SOILNI  YEAR DOY = 2006 228
 Warning: The initialized C:N ratio of the soil organic                        
 matter (humus) in layer   7 is unlikely:      8.8                             
 A C:N ratio of 10.0 will be used to calculate initial soil organic N.         
 Please check your SOIL.SOL file.                                              

******************************************************************************

*DSSAT Cropping System Model Ver. 4.0.2.000               Aug 19, 2016; 14:56:29

*RUN   8        : UYMZ                    
 MODEL          : MZCER040 - Maize           
 EXPERIMENT     : UYMZ0220 MZ    late to create DSS                             
 TREATMENT  1   : UYMZ                    


 SOILNI  YEAR DOY = 2007 228
 Warning: The initialized C:N ratio of the soil organic                        
 matter (humus) in layer   1 is unlikely:      9.1                             
 A C:N ratio of 10.0 will be used to calculate initial soil organic N.         
 Please check your SOIL.SOL file.                                              

 SOILNI  YEAR DOY = 2007 228
 Warning: The initialized C:N ratio of the soil organic                        
 matter (humus) in layer   2 is unlikely:      9.1                             
 A C:N ratio of 10.0 will be used to calculate initial soil organic N.         
 Please check your SOIL.SOL file.                                              

 SOILNI  YEAR DOY = 2007 228
 Warning: The initialized C:N ratio of the soil organic                        
 matter (humus) in layer   3 is unlikely:      9.1                             
 A C:N ratio of 10.0 will be used to calculate initial soil organic N.         
 Please check your SOIL.SOL file.                                              

 SOILNI  YEAR DOY = 2007 228
 Warning: The initialized C:N ratio of the soil organic                        
 matter (humus) in layer   4 is unlikely:      9.7                             
 A C:N ratio of 10.0 will be used to calculate initial soil organic N.         
 Please check your SOIL.SOL file.                                              

 SOILNI  YEAR DOY = 2007 228
 Warning: The initialized C:N ratio of the soil organic                        
 matter (humus) in layer   5 is unlikely:      8.6                             
 A C:N ratio of 10.0 will be used to calculate initial soil organic N.         
 Please check your SOIL.SOL file.                                              

 SOILNI  YEAR DOY = 2007 228
 Warning: The initialized C:N ratio of the soil organic                        
 matter (humus) in layer   6 is unlikely:      7.3                             
 A C:N ratio of 10.0 will be used to calculate initial soil organic N.         
 Please check your SOIL.SOL file.                                              

 SOILNI  YEAR DOY = 2007 228
 Warning: The initialized C:N ratio of the soil organic                        
 matter (humus) in layer   7 is unlikely:      8.8                             
 A C:N ratio of 10.0 will be used to calculate initial soil organic N.         
 Please check your SOIL.SOL file.                                              

******************************************************************************

*DSSAT Cropping System Model Ver. 4.0.2.000               Aug 19, 2016; 14:56:29

*RUN   9        : UYMZ                    
 MODEL          : MZCER040 - Maize           
 EXPERIMENT     : UYMZ0220 MZ    late to create DSS                             
 TREATMENT  1   : UYMZ                    


 SOILNI  YEAR DOY = 2008 228
 Warning: The initialized C:N ratio of the soil organic                        
 matter (humus) in layer   1 is unlikely:      9.1                             
 A C:N ratio of 10.0 will be used to calculate initial soil organic N.         
 Please check your SOIL.SOL file.                                              

 SOILNI  YEAR DOY = 2008 228
 Warning: The initialized C:N ratio of the soil organic                        
 matter (humus) in layer   2 is unlikely:      9.1                             
 A C:N ratio of 10.0 will be used to calculate initial soil organic N.         
 Please check your SOIL.SOL file.                                              

 SOILNI  YEAR DOY = 2008 228
 Warning: The initialized C:N ratio of the soil organic                        
 matter (humus) in layer   3 is unlikely:      9.1                             
 A C:N ratio of 10.0 will be used to calculate initial soil organic N.         
 Please check your SOIL.SOL file.                                              

 SOILNI  YEAR DOY = 2008 228
 Warning: The initialized C:N ratio of the soil organic                        
 matter (humus) in layer   4 is unlikely:      9.7                             
 A C:N ratio of 10.0 will be used to calculate initial soil organic N.         
 Please check your SOIL.SOL file.                                              

 SOILNI  YEAR DOY = 2008 228
 Warning: The initialized C:N ratio of the soil organic                        
 matter (humus) in layer   5 is unlikely:      8.6                             
 A C:N ratio of 10.0 will be used to calculate initial soil organic N.         
 Please check your SOIL.SOL file.                                              

 SOILNI  YEAR DOY = 2008 228
 Warning: The initialized C:N ratio of the soil organic                        
 matter (humus) in layer   6 is unlikely:      7.3                             
 A C:N ratio of 10.0 will be used to calculate initial soil organic N.         
 Please check your SOIL.SOL file.                                              

 SOILNI  YEAR DOY = 2008 228
 Warning: The initialized C:N ratio of the soil organic                        
 matter (humus) in layer   7 is unlikely:      8.8                             
 A C:N ratio of 10.0 will be used to calculate initial soil organic N.         
 Please check your SOIL.SOL file.                                              

******************************************************************************

*DSSAT Cropping System Model Ver. 4.0.2.000               Aug 19, 2016; 14:56:29

*RUN  10        : UYMZ                    
 MODEL          : MZCER040 - Maize           
 EXPERIMENT     : UYMZ0220 MZ    late to create DSS                             
 TREATMENT  1   : UYMZ                    


 SOILNI  YEAR DOY = 2009 228
 Warning: The initialized C:N ratio of the soil organic                        
 matter (humus) in layer   1 is unlikely:      9.1                             
 A C:N ratio of 10.0 will be used to calculate initial soil organic N.         
 Please check your SOIL.SOL file.                                              

 SOILNI  YEAR DOY = 2009 228
 Warning: The initialized C:N ratio of the soil organic                        
 matter (humus) in layer   2 is unlikely:      9.1                             
 A C:N ratio of 10.0 will be used to calculate initial soil organic N.         
 Please check your SOIL.SOL file.                                              

 SOILNI  YEAR DOY = 2009 228
 Warning: The initialized C:N ratio of the soil organic                        
 matter (humus) in layer   3 is unlikely:      9.1                             
 A C:N ratio of 10.0 will be used to calculate initial soil organic N.         
 Please check your SOIL.SOL file.                                              

 SOILNI  YEAR DOY = 2009 228
 Warning: The initialized C:N ratio of the soil organic                        
 matter (humus) in layer   4 is unlikely:      9.7                             
 A C:N ratio of 10.0 will be used to calculate initial soil organic N.         
 Please check your SOIL.SOL file.                                              

 SOILNI  YEAR DOY = 2009 228
 Warning: The initialized C:N ratio of the soil organic                        
 matter (humus) in layer   5 is unlikely:      8.6                             
 A C:N ratio of 10.0 will be used to calculate initial soil organic N.         
 Please check your SOIL.SOL file.                                              

 SOILNI  YEAR DOY = 2009 228
 Warning: The initialized C:N ratio of the soil organic                        
 matter (humus) in layer   6 is unlikely:      7.3                             
 A C:N ratio of 10.0 will be used to calculate initial soil organic N.         
 Please check your SOIL.SOL file.                                              

 SOILNI  YEAR DOY = 2009 228
 Warning: The initialized C:N ratio of the soil organic                        
 matter (humus) in layer   7 is unlikely:      8.8                             
 A C:N ratio of 10.0 will be used to calculate initial soil organic N.         
 Please check your SOIL.SOL file.                                              

******************************************************************************

*DSSAT Cropping System Model Ver. 4.0.2.000               Aug 19, 2016; 14:56:29

*RUN  11        : UYMZ                    
 MODEL          : MZCER040 - Maize           
 EXPERIMENT     : UYMZ0220 MZ    late to create DSS                             
 TREATMENT  1   : UYMZ                    


 SOILNI  YEAR DOY = 2010 228
 Warning: The initialized C:N ratio of the soil organic                        
 matter (humus) in layer   1 is unlikely:      9.1                             
 A C:N ratio of 10.0 will be used to calculate initial soil organic N.         
 Please check your SOIL.SOL file.                                              

 SOILNI  YEAR DOY = 2010 228
 Warning: The initialized C:N ratio of the soil organic                        
 matter (humus) in layer   2 is unlikely:      9.1                             
 A C:N ratio of 10.0 will be used to calculate initial soil organic N.         
 Please check your SOIL.SOL file.                                              

 SOILNI  YEAR DOY = 2010 228
 Warning: The initialized C:N ratio of the soil organic                        
 matter (humus) in layer   3 is unlikely:      9.1                             
 A C:N ratio of 10.0 will be used to calculate initial soil organic N.         
 Please check your SOIL.SOL file.                                              

 SOILNI  YEAR DOY = 2010 228
 Warning: The initialized C:N ratio of the soil organic                        
 matter (humus) in layer   4 is unlikely:      9.7                             
 A C:N ratio of 10.0 will be used to calculate initial soil organic N.         
 Please check your SOIL.SOL file.                                              

 SOILNI  YEAR DOY = 2010 228
 Warning: The initialized C:N ratio of the soil organic                        
 matter (humus) in layer   5 is unlikely:      8.6                             
 A C:N ratio of 10.0 will be used to calculate initial soil organic N.         
 Please check your SOIL.SOL file.                                              

 SOILNI  YEAR DOY = 2010 228
 Warning: The initialized C:N ratio of the soil organic                        
 matter (humus) in layer   6 is unlikely:      7.3                             
 A C:N ratio of 10.0 will be used to calculate initial soil organic N.         
 Please check your SOIL.SOL file.                                              

 SOILNI  YEAR DOY = 2010 228
 Warning: The initialized C:N ratio of the soil organic                        
 matter (humus) in layer   7 is unlikely:      8.8                             
 A C:N ratio of 10.0 will be used to calculate initial soil organic N.         
 Please check your SOIL.SOL file.                                              
