*WARNING DETAIL FILE

******************************************************************************

*DSSAT Cropping System Model Ver. 4.0.2.000               Sep 12, 2016; 16:02:41

*RUN   1        : UYMZ                    
 MODEL          : MZCER040 - Maize           
 EXPERIMENT     : UYMZ0790 MZ    late to create DSS                             
 TREATMENT  1   : UYMZ                    


 IPSOIL  YEAR DOY = 1990 251
 File does not exist:                                                          
 SOILN040.SOL                                                                  
 Default residue characteristics will be used.                                 

 SOILNI  YEAR DOY = 1990 251
 Warning: The initialized C:N ratio of the soil organic                        
 matter (humus) in layer   1 is unlikely:      4.5                             
 A C:N ratio of 10.0 will be used to calculate initial soil organic N.         
 Please check your SOIL.SOL file.                                              

 SOILNI  YEAR DOY = 1990 251
 Warning: The initialized C:N ratio of the soil organic                        
 matter (humus) in layer   2 is unlikely:      4.5                             
 A C:N ratio of 10.0 will be used to calculate initial soil organic N.         
 Please check your SOIL.SOL file.                                              

 SOILNI  YEAR DOY = 1990 251
 Warning: The initialized C:N ratio of the soil organic                        
 matter (humus) in layer   3 is unlikely:      4.9                             
 A C:N ratio of 10.0 will be used to calculate initial soil organic N.         
 Please check your SOIL.SOL file.                                              

 SOILNI  YEAR DOY = 1990 251
 Warning: The initialized C:N ratio of the soil organic                        
 matter (humus) in layer   4 is unlikely:      4.9                             
 A C:N ratio of 10.0 will be used to calculate initial soil organic N.         
 Please check your SOIL.SOL file.                                              

 SOILNI  YEAR DOY = 1990 251
 Warning: The initialized C:N ratio of the soil organic                        
 matter (humus) in layer   5 is unlikely:      5.0                             
 A C:N ratio of 10.0 will be used to calculate initial soil organic N.         
 Please check your SOIL.SOL file.                                              

 SOILNI  YEAR DOY = 1990 251
 Warning: The initialized C:N ratio of the soil organic                        
 matter (humus) in layer   6 is unlikely:      5.0                             
 A C:N ratio of 10.0 will be used to calculate initial soil organic N.         
 Please check your SOIL.SOL file.                                              

 SOILNI  YEAR DOY = 1990 251
 Warning: The initialized C:N ratio of the soil organic                        
 matter (humus) in layer   7 is unlikely:      4.1                             
 A C:N ratio of 10.0 will be used to calculate initial soil organic N.         
 Please check your SOIL.SOL file.                                              

******************************************************************************

*DSSAT Cropping System Model Ver. 4.0.2.000               Sep 12, 2016; 16:02:41

*RUN   2        : UYMZ                    
 MODEL          : MZCER040 - Maize           
 EXPERIMENT     : UYMZ0790 MZ    late to create DSS                             
 TREATMENT  1   : UYMZ                    


 SOILNI  YEAR DOY = 1991 251
 Warning: The initialized C:N ratio of the soil organic                        
 matter (humus) in layer   1 is unlikely:      4.5                             
 A C:N ratio of 10.0 will be used to calculate initial soil organic N.         
 Please check your SOIL.SOL file.                                              

 SOILNI  YEAR DOY = 1991 251
 Warning: The initialized C:N ratio of the soil organic                        
 matter (humus) in layer   2 is unlikely:      4.5                             
 A C:N ratio of 10.0 will be used to calculate initial soil organic N.         
 Please check your SOIL.SOL file.                                              

 SOILNI  YEAR DOY = 1991 251
 Warning: The initialized C:N ratio of the soil organic                        
 matter (humus) in layer   3 is unlikely:      4.9                             
 A C:N ratio of 10.0 will be used to calculate initial soil organic N.         
 Please check your SOIL.SOL file.                                              

 SOILNI  YEAR DOY = 1991 251
 Warning: The initialized C:N ratio of the soil organic                        
 matter (humus) in layer   4 is unlikely:      4.9                             
 A C:N ratio of 10.0 will be used to calculate initial soil organic N.         
 Please check your SOIL.SOL file.                                              

 SOILNI  YEAR DOY = 1991 251
 Warning: The initialized C:N ratio of the soil organic                        
 matter (humus) in layer   5 is unlikely:      5.0                             
 A C:N ratio of 10.0 will be used to calculate initial soil organic N.         
 Please check your SOIL.SOL file.                                              

 SOILNI  YEAR DOY = 1991 251
 Warning: The initialized C:N ratio of the soil organic                        
 matter (humus) in layer   6 is unlikely:      5.0                             
 A C:N ratio of 10.0 will be used to calculate initial soil organic N.         
 Please check your SOIL.SOL file.                                              

 SOILNI  YEAR DOY = 1991 251
 Warning: The initialized C:N ratio of the soil organic                        
 matter (humus) in layer   7 is unlikely:      4.1                             
 A C:N ratio of 10.0 will be used to calculate initial soil organic N.         
 Please check your SOIL.SOL file.                                              

******************************************************************************

*DSSAT Cropping System Model Ver. 4.0.2.000               Sep 12, 2016; 16:02:41

*RUN   3        : UYMZ                    
 MODEL          : MZCER040 - Maize           
 EXPERIMENT     : UYMZ0790 MZ    late to create DSS                             
 TREATMENT  1   : UYMZ                    


 SOILNI  YEAR DOY = 1992 251
 Warning: The initialized C:N ratio of the soil organic                        
 matter (humus) in layer   1 is unlikely:      4.5                             
 A C:N ratio of 10.0 will be used to calculate initial soil organic N.         
 Please check your SOIL.SOL file.                                              

 SOILNI  YEAR DOY = 1992 251
 Warning: The initialized C:N ratio of the soil organic                        
 matter (humus) in layer   2 is unlikely:      4.5                             
 A C:N ratio of 10.0 will be used to calculate initial soil organic N.         
 Please check your SOIL.SOL file.                                              

 SOILNI  YEAR DOY = 1992 251
 Warning: The initialized C:N ratio of the soil organic                        
 matter (humus) in layer   3 is unlikely:      4.9                             
 A C:N ratio of 10.0 will be used to calculate initial soil organic N.         
 Please check your SOIL.SOL file.                                              

 SOILNI  YEAR DOY = 1992 251
 Warning: The initialized C:N ratio of the soil organic                        
 matter (humus) in layer   4 is unlikely:      4.9                             
 A C:N ratio of 10.0 will be used to calculate initial soil organic N.         
 Please check your SOIL.SOL file.                                              

 SOILNI  YEAR DOY = 1992 251
 Warning: The initialized C:N ratio of the soil organic                        
 matter (humus) in layer   5 is unlikely:      5.0                             
 A C:N ratio of 10.0 will be used to calculate initial soil organic N.         
 Please check your SOIL.SOL file.                                              

 SOILNI  YEAR DOY = 1992 251
 Warning: The initialized C:N ratio of the soil organic                        
 matter (humus) in layer   6 is unlikely:      5.0                             
 A C:N ratio of 10.0 will be used to calculate initial soil organic N.         
 Please check your SOIL.SOL file.                                              

 SOILNI  YEAR DOY = 1992 251
 Warning: The initialized C:N ratio of the soil organic                        
 matter (humus) in layer   7 is unlikely:      4.1                             
 A C:N ratio of 10.0 will be used to calculate initial soil organic N.         
 Please check your SOIL.SOL file.                                              
