*WARNING DETAIL FILE

******************************************************************************

*DSSAT Cropping System Model Ver. 4.0.2.000               Sep 01, 2016; 12:51:46

*RUN   1        : UYSB                    
 MODEL          : CRGRO040 - Soybean         
 EXPERIMENT     : UYSB0667 SB    late to create DSS                             
 TREATMENT  1   : UYSB                    


 SOILDY  YEAR DOY = 1990 241
 Surface runoff curve number has been changed from  10.0 to  25.0.             

 IPSOIL  YEAR DOY = 1990 241
 File does not exist:                                                          
 SOILN040.SOL                                                                  
 Default residue characteristics will be used.                                 
