*SOIL N BALANCE - CERES SOIL N&C ROUTINES

*DSSAT Cropping System Model Ver. 4.0.2.000               Jul 19, 2016; 16:22:11

*RUN   1        : UYMZ                    
 MODEL          : MZCER040 - Maize           
 EXPERIMENT     : UYMZ0028 MZ    late to create DSS                             
 TREATMENT  1   : UYMZ                    



                                         INITIAL Year/Doy      FINAL Year/Doy
                                                 1990/191            1991/009
SOIL N BALANCE                                  -----------kg N/ha-----------

   Soil Humus N                                  16646.04            16539.72
   Soil Litter N                                     0.00               10.66
   N in Surface Residue                              0.00                0.00
   Soil NO3                                         74.81                5.89
   Soil NH4                                         23.95                7.34
   Soil Urea                                         0.00                0.00

   Added to / Removed from Soil:
   N in Harvest Residues from Previous Crop          0.00
   N from Organic Applications                       0.00
   N from senesced plant matter                     15.05
   Fertilizer N                                      2.00
   Leached NO3                                                           4.38
   N Denitrified                                                         0.51
   N Uptake From Soil                                                  192.66
   Ammonia volatilization                                                0.69

   Total N balance                               16761.85            16761.85
