*PLANT N OUTPUT FILE

*DSSAT Cropping System Model Ver. 4.0.2.000               Jul 19, 2016; 16:44:49

*RUN   1        : UYMZ                    
 MODEL          : MZCER040 - Maize           
 EXPERIMENT     : UYMZ0040 MZ    late to create DSS                             
 TREATMENT  1   : UYMZ                    

@YEAR DOY   DAS   DAP   CNAD   GNAD   VNAD   GN%D   VN%D   NUPC   LNAD   SNAD   LN%D   SN%D   RN%D   SNN0C   SNN1C
 1990 187     3     0    0.0    0.0    0.0   0.00   0.00    0.0    0.0    0.0    0.0   0.00   0.00    0.00    0.00
 1990 188     4     1    0.0    0.0    0.0   0.00   0.00    0.0    0.0    0.0    0.0   0.00   0.00    0.00    0.00
 1990 189     5     2    0.0    0.0    0.0   0.00   0.00    0.0    0.0    0.0    0.0   0.00   0.00    0.00    0.00
 1990 190     6     3    0.0    0.0    0.0   0.00   0.00    0.0    0.0    0.0    0.0   0.00   0.00    0.00    0.00
 1990 191     7     4    0.0    0.0    0.0   0.00   0.00    0.0    0.0    0.0    0.0   0.00   0.00    0.00    0.00
 1990 192     8     5    0.0    0.0    0.0   0.00   0.00    0.0    0.0    0.0    0.0   0.00   0.00    0.00    0.00
 1990 193     9     6    0.0    0.0    0.0   0.00   0.00    0.0    0.0    0.0    0.0   0.00   0.00    0.00    0.00
 1990 194    10     7    0.0    0.0    0.0   0.00   0.00    0.0    0.0    0.0    0.0   0.00   0.00    0.00    0.00
 1990 195    11     8    0.0    0.0    0.0   0.00   0.00    0.0    0.0    0.0    0.0   0.00   0.00    0.00    0.00
 1990 196    12     9    0.0    0.0    0.0   0.00   0.00    0.0    0.0    0.0    0.0   0.00   0.00    0.00    0.00
 1990 197    13    10    0.0    0.0    0.0   0.00   0.00    0.0    0.0    0.0    0.0   0.00   0.00    0.00    0.00
 1990 198    14    11    0.0    0.0    0.0   0.00   0.00    0.0    0.0    0.0    0.0   0.00   0.00    0.00    0.00
 1990 199    15    12    0.0    0.0    0.0   0.00   0.00    0.0    0.0    0.0    0.0   0.00   0.00    0.00    0.00
 1990 200    16    13    0.0    0.0    0.0   0.00   0.00    0.0    0.0    0.0    0.0   0.00   0.00    0.00    0.00
 1990 201    17    14    0.0    0.0    0.0   0.00   0.00    0.0    0.0    0.0    0.0   0.00   0.00    0.00    0.00
 1990 202    18    15    0.0    0.0    0.0   0.00   0.00    0.0    0.0    0.0    0.0   0.00   0.00    0.00    0.00
 1990 203    19    16    0.0    0.0    0.0   0.00   0.00    0.0    0.0    0.0    0.0   0.00   0.00    0.00    0.00
 1990 204    20    17    0.0    0.0    0.0   0.00   0.00    0.0    0.0    0.0    0.0   0.00   0.00    0.00    0.00
 1990 205    21    18    0.0    0.0    0.0   0.00   0.00    0.0    0.0    0.0    0.0   0.00   0.00    0.00    0.00
 1990 206    22    19    0.0    0.0    0.0   0.00   0.00    0.0    0.0    0.0    0.0   0.00   0.00    0.00    0.00
 1990 207    23    20    0.0    0.0    0.0   0.00   0.00    0.0    0.0    0.0    0.0   0.00   0.00    0.00    0.00
 1990 208    24    21    0.0    0.0    0.0   0.00   0.00    0.0    0.0    0.0    0.0   0.00   0.00    0.00    0.00
 1990 209    25    22    0.0    0.0    0.0   0.00   0.00    0.0    0.0    0.0    0.0   0.00   0.00    0.00    0.00
 1990 210    26    23    0.0    0.0    0.0   0.00   0.00    0.0    0.0    0.0    0.0   0.00   0.00    0.00    0.00
 1990 211    27    24    0.0    0.0    0.0   0.00   0.00    0.0    0.0    0.0    0.0   0.00   0.00    0.00    0.00
 1990 212    28    25    0.0    0.0    0.0   0.00   0.00    0.0    0.0    0.0    0.0   0.00   0.00    0.00    0.00
 1990 213    29    26    0.0    0.0    0.0   0.00   0.00    0.0    0.0    0.0    0.0   0.00   0.00    0.00    0.00
 1990 214    30    27    0.0    0.0    0.0   0.00   0.00    0.0    0.0    0.0    0.0   0.00   0.00    0.00    0.00
 1990 215    31    28    0.0    0.0    0.0   0.00   0.00    0.0    0.0    0.0    0.0   0.00   0.00    0.00    0.00
 1990 216    32    29    0.0    0.0    0.0   0.00   0.00    0.0    0.0    0.0    0.0   0.00   0.00    0.00    0.00
 1990 217    33    30    0.0    0.0    0.0   0.00   0.00    0.0    0.0    0.0    0.0   0.00   0.00    0.00    0.00
 1990 218    34    31    0.0    0.0    0.0   0.00   0.00    0.0    0.0    0.0    0.0   0.00   0.00    0.00    0.00
 1990 219    35    32    1.2    0.0    1.2   0.00   4.40    0.0    0.6    0.6    4.4   4.40   0.00    0.00    0.00
 1990 220    36    33    1.3    0.0    1.3   0.00   4.52    0.2    0.6    0.6    4.5   4.52   1.09    0.00    0.00
 1990 221    37    34    1.3    0.0    1.3   0.00   4.50    0.2    0.6    0.6    4.5   4.50   1.13    0.00    0.00
 1990 222    38    35    1.3    0.0    1.3   0.00   4.48    0.2    0.6    0.6    4.5   4.48   1.15    0.00    0.00
 1990 223    39    36    1.3    0.0    1.3   0.00   4.48    0.2    0.6    0.6    4.5   4.48   1.11    0.00    0.00
 1990 224    40    37    1.3    0.0    1.3   0.00   4.48    0.2    0.6    0.6    4.5   4.48   1.07    0.00    0.00
 1990 225    41    38    1.3    0.0    1.3   0.00   4.48    0.2    0.6    0.6    4.5   4.48   1.04    0.00    0.00
 1990 226    42    39    1.3    0.0    1.3   0.00   4.48    0.2    0.6    0.6    4.5   4.48   1.00    0.00    0.00
 1990 227    43    40    1.2    0.0    1.2   0.00   4.33    0.2    0.6    0.6    4.3   4.33   1.21    0.00    0.00
 1990 228    44    41    1.2    0.0    1.2   0.00   4.32    0.2    0.6    0.6    4.3   4.32   1.24    0.00    0.00
 1990 229    45    42    1.2    0.0    1.2   0.00   4.27    0.3    0.6    0.6    4.3   4.27   1.27    0.00    0.00
 1990 230    46    43    1.2    0.0    1.2   0.00   3.79    0.4    0.7    0.5    3.8   3.79   1.23    0.00    0.01
 1990 231    47    44    1.4    0.0    1.4   0.00   3.65    0.5    0.9    0.5    3.7   3.65   1.18    0.00    0.01
 1990 232    48    45    1.6    0.0    1.6   0.00   3.64    0.9    1.1    0.5    3.6   3.64   1.25    0.00    0.01
 1990 233    49    46    1.8    0.0    1.8   0.00   3.77    1.2    1.3    0.5    3.8   3.77   1.24    0.00    0.01
 1990 234    50    47    2.1    0.0    2.1   0.00   3.82    1.5    1.5    0.5    3.8   3.82   1.22    0.00    0.02
 1990 235    51    48    2.3    0.0    2.3   0.00   4.02    2.0    1.7    0.6    4.0   4.02   1.37    0.00    0.02
 1990 236    52    49    2.4    0.0    2.4   0.00   3.98    2.0    1.8    0.6    4.0   3.98   1.21    0.00    0.02
 1990 237    53    50    2.5    0.0    2.5   0.00   3.57    2.2    2.0    0.5    3.6   3.57   1.16    0.00    0.03
 1990 238    54    51    2.9    0.0    2.9   0.00   3.47    2.8    2.4    0.5    3.5   3.47   1.20    0.00    0.03
 1990 239    55    52    3.4    0.0    3.4   0.00   3.92    3.3    2.9    0.5    3.9   3.92   1.15    0.00    0.04
 1990 240    56    53    3.6    0.0    3.6   0.00   4.14    4.0    3.1    0.6    4.1   4.14   1.56    0.00    0.05
 1990 241    57    54    3.6    0.0    3.6   0.00   4.05    4.0    3.1    0.6    4.0   4.05   1.45    0.00    0.05
 1990 242    58    55    3.6    0.0    3.6   0.00   3.73    4.0    3.1    0.5    3.7   3.73   1.37    0.00    0.05
 1990 243    59    56    4.0    0.0    4.0   0.00   4.08    4.0    3.4    0.6    4.1   4.08   1.09    0.00    0.05
 1990 244    60    57    4.1    0.0    4.1   0.00   4.12    4.2    3.5    0.6    4.1   4.12   1.16    0.00    0.06
 1990 245    61    58    4.1    0.0    4.1   0.00   4.11    4.2    3.5    0.6    4.1   4.11   1.17    0.00    0.07
 1990 246    62    59    4.1    0.0    4.1   0.00   3.94    4.2    3.5    0.6    3.9   3.94   1.17    0.00    0.07
 1990 247    63    60    4.2    0.0    4.2   0.00   3.89    4.2    3.7    0.5    3.9   3.89   1.07    0.00    0.07
 1990 248    64    61    4.4    0.0    4.4   0.00   4.02    4.4    3.9    0.6    4.0   4.02   1.07    0.00    0.08
 1990 249    65    62    4.5    0.0    4.5   0.00   3.98    4.5    3.9    0.6    4.0   3.98   1.07    0.00    0.08
 1990 250    66    63    4.6    0.0    4.6   0.00   3.95    4.6    4.0    0.6    4.0   3.95   1.07    0.00    0.09
 1990 251    67    64    4.7    0.0    4.7   0.00   3.96    4.7    4.1    0.6    4.0   3.96   1.07    0.00    0.10
 1990 252    68    65    4.8    0.0    4.8   0.00   3.52    4.8    4.3    0.5    3.5   3.52   1.09    0.00    0.10
 1990 253    69    66    5.4    0.0    5.4   0.00   3.51    5.5    4.9    0.5    3.5   3.51   1.09    0.00    0.11
 1990 254    70    67    6.1    0.0    6.1   0.00   3.61    6.2    5.6    0.5    3.6   3.61   1.09    0.00    0.12
 1990 255    71    68    6.7    0.0    6.7   0.00   3.60    6.9    6.2    0.5    3.6   3.60   1.14    0.00    0.12
 1990 256    72    69    7.4    0.0    7.4   0.00   3.71    7.7    6.9    0.5    3.7   3.71   1.17    0.00    0.13
 1990 257    73    70    8.0    0.0    8.0   0.00   3.60    8.3    7.5    0.5    3.6   3.60   1.17    0.00    0.14
 1990 258    74    71    8.8    0.0    8.8   0.00   3.77    9.3    8.2    0.5    3.8   3.77   1.22    0.00    0.14
 1990 259    75    72    9.2    0.0    9.2   0.00   3.60    9.7    8.6    0.5    3.6   3.60   1.14    0.00    0.15
 1990 260    76    73   10.0    0.0   10.0   0.00   3.65   10.5    9.5    0.5    3.7   3.65   1.10    0.00    0.16
 1990 261    77    74   10.7    0.0   10.7   0.00   3.64   11.2   10.2    0.5    3.6   3.64   1.10    0.00    0.17
 1990 262    78    75   11.4    0.0   11.4   0.00   3.90   12.5   10.9    0.5    3.9   3.90   1.23    0.00    0.18
 1990 263    79    76   11.4    0.0   11.4   0.00   3.67   12.5   10.9    0.5    3.7   3.67   1.21    0.00    0.18
 1990 264    80    77   11.9    0.0   11.9   0.00   3.58   12.8   11.4    0.5    3.6   3.58   1.09    0.00    0.19
 1990 265    81    78   13.6    0.0   13.6   0.00   3.79   15.2   13.1    0.5    3.8   3.79   1.25    0.00    0.20
 1990 266    82    79   13.8    0.0   13.8   0.00   3.75   16.0   13.3    0.5    3.7   3.75   1.36    0.00    0.22
 1990 267    83    80   13.8    0.0   13.8   0.00   3.66   16.5   13.3    0.5    3.7   3.66   1.38    0.00    0.23
 1990 268    84    81   14.2    0.0   14.2   0.00   3.64   17.2   13.7    0.5    3.6   3.64   1.32    0.00    0.25
 1990 269    85    82   14.9    0.0   14.9   0.00   3.56   18.2   14.4    0.5    3.6   3.56   1.22    0.00    0.27
 1990 270    86    83   16.4    0.0   16.4   0.00   3.53   20.0   15.9    0.5    3.5   3.53   1.18    0.00    0.30
 1990 271    87    84   17.7    0.0   17.7   0.00   3.50   20.9   17.2    0.5    3.5   3.50   1.07    0.00    0.32
 1990 272    88    85   19.2    0.0   19.2   0.00   3.48   23.4   18.6    0.6    3.5   3.48   1.18    0.00    0.34
 1990 273    89    86   20.8    0.0   20.8   0.00   3.45   25.6   20.2    0.6    3.4   3.45   1.18    0.00    0.37
 1990 274    90    87   23.2    0.0   23.2   0.00   3.41   28.6   22.5    0.7    3.4   3.41   1.18    0.00    0.40
 1990 275    91    88   25.6    0.0   25.6   0.00   3.38   32.1   24.8    0.9    3.4   3.38   1.20    0.00    0.43
 1990 276    92    89   28.7    0.0   28.7   0.00   3.34   35.7   27.5    1.1    3.3   3.34   1.17    0.00    0.47
 1990 277    93    90   32.8    0.0   32.8   0.00   3.29   39.8   31.2    1.6    3.3   3.29   1.12    0.00    0.51
 1990 278    94    91   35.1    0.0   35.1   0.00   3.26   41.8   33.2    1.9    3.3   3.26   1.07    0.00    0.55
 1990 279    95    92   38.3    0.0   38.3   0.00   3.22   45.1   35.9    2.5    3.2   3.22   1.07    0.00    0.59
 1990 280    96    93   40.8    0.0   40.8   0.00   3.19   47.6   37.8    3.0    3.2   3.19   1.07    0.00    0.63
 1990 281    97    94   43.1    0.0   43.1   0.00   3.16   50.7   39.7    3.5    3.2   3.16   1.12    0.00    0.67
 1990 282    98    95   45.5    0.0   45.5   0.00   3.14   55.4   41.5    4.0    3.1   3.14   1.23    0.00    0.71
 1990 283    99    96   48.2    0.0   48.2   0.00   3.11   59.0   43.5    4.7    3.1   3.11   1.19    0.00    0.77
 1990 284   100    97   51.4    0.0   51.4   0.00   3.08   61.2   45.8    5.6    3.1   3.08   1.08    0.00    0.83
 1990 285   101    98   53.8    0.0   53.8   0.00   3.06   66.8   47.4    6.3    3.1   3.06   1.22    0.00    0.88
 1990 286   102    99   55.9    0.0   55.9   0.00   3.04   70.9   48.9    7.0    3.0   3.04   1.21    0.00    0.96
 1990 287   103   100   59.0    0.0   59.0   0.00   3.02   75.2   50.9    8.1    3.0   3.02   1.17    0.00    1.04
 1990 288   104   101   61.2    0.0   61.2   0.00   3.00   79.4   52.3    8.9    3.0   3.00   1.18    0.00    1.12
 1990 289   105   102   63.0    0.0   63.0   0.00   2.98   83.3   53.5    9.5    3.0   2.98   1.18    0.00    1.22
 1990 290   106   103   65.6    0.0   65.6   0.00   2.97   85.5   55.1   10.5    3.0   2.97   1.11    0.00    1.33
 1990 291   107   104   69.8    0.0   69.8   0.00   2.94   91.5   57.6   12.3    2.9   2.94   1.14    0.00    1.43
 1990 292   108   105   74.3    0.0   74.3   0.00   2.90   95.8   60.1   14.2    2.9   2.90   1.10    0.00    1.54
 1990 293   109   106   78.9    0.0   78.9   0.00   2.87  100.8   62.5   16.4    2.9   2.87   1.09    0.00    1.66
 1990 294   110   107   83.5    0.0   83.5   0.00   2.84  106.9   64.9   18.6    2.8   2.84   1.12    0.00    1.77
 1990 295   111   108   88.1    0.0   88.1   0.00   2.82  113.6   67.1   21.0    2.8   2.82   1.14    0.00    1.89
 1990 296   112   109   93.1    0.0   93.1   0.00   2.79  118.7   69.5   23.6    2.8   2.79   1.11    0.00    2.03
 1990 297   113   110   97.6    0.0   97.6   0.00   2.76  124.2   71.5   26.1    2.8   2.76   1.11    0.00    2.16
 1990 298   114   111  103.3    0.0  103.3   0.00   2.73  129.0   74.9   28.5    2.7   2.73   1.07    0.00    2.30
 1990 299   115   112  109.7    0.0  109.7   0.00   2.62  135.7   76.7   32.9    2.6   2.62   1.07    0.00    2.43
 1990 300   116   113  114.6    0.0  114.6   0.00   2.53  140.7   77.6   37.0    2.5   2.53   1.07    0.00    2.57
 1990 301   117   114  118.7    0.0  118.7   0.00   2.54  144.7   79.2   39.5    2.5   2.54   1.07    0.00    2.70
 1990 302   118   115  121.9    0.0  121.9   0.00   2.49  148.0   79.6   42.4    2.5   2.49   1.07    0.00    2.84
 1990 303   119   116  124.3    0.0  124.3   0.00   2.37  150.6   78.3   46.1    2.4   2.37   1.05    0.00    2.97
 1990 304   120   117  126.2    0.0  126.2   0.00   2.29  152.9   77.5   48.7    2.3   2.29   1.02    0.00    3.11
 1990 305   121   118  127.9    0.0  127.9   0.00   2.22  154.9   76.5   51.4    2.2   2.22   1.00    0.00    3.25
 1990 306   122   119  129.3    0.0  129.3   0.00   2.14  156.5   75.5   53.8    2.1   2.14   0.99    0.00    3.39
 1990 307   123   120  131.2    0.0  131.2   0.00   2.10  158.5   75.2   56.0    2.1   2.10   1.00    0.00    3.53
 1990 308   124   121  132.7    0.0  132.7   0.00   2.07  160.4   74.9   57.8    2.1   2.07   0.98    0.00    3.67
 1990 309   125   122  134.2    0.0  134.2   0.00   2.06  162.3   75.1   59.1    2.1   2.06   0.92    0.00    3.81
 1990 310   126   123  135.6    0.0  135.6   0.00   2.03  164.1   74.9   60.7    2.0   2.03   0.91    0.00    3.96
 1990 311   127   124  136.8    0.0  136.8   0.00   1.99  165.7   74.3   62.5    2.0   1.99   0.89    0.00    4.10
 1990 312   128   125  137.8    0.0  137.8   0.00   1.96  166.9   74.1   63.7    2.0   1.96   0.90    0.00    4.25
 1990 313   129   126  138.8    0.0  138.8   0.00   1.92  168.0   73.4   65.4    1.9   1.92   0.90    0.00    4.40
 1990 314   130   127  139.6    0.0  139.6   0.00   1.87  169.1   72.7   66.9    1.9   1.87   0.88    0.00    4.55
 1990 315   131   128  140.4    0.0  140.4   0.00   1.82  170.1   71.8   68.6    1.8   1.82   0.87    0.00    4.70
 1990 316   132   129  141.2    0.0  141.2   0.00   1.78  171.0   71.3   69.9    1.8   1.78   0.88    0.00    4.85
 1990 317   133   130  142.0    0.0  142.0   0.00   1.93  172.0   76.7   65.3    1.9   1.93   0.86    0.00    5.01
 1990 318   134   131  142.7    0.0  142.7   0.00   1.93  173.0   75.9   66.9    1.9   1.93   0.87    0.00    5.16
 1990 319   135   132  143.4    0.0  143.4   0.00   1.94  173.9   75.3   68.1    1.9   1.94   0.88    0.00    5.31
 1990 320   136   133  144.0    0.0  144.0   0.00   1.95  174.8   74.6   69.3    1.9   1.95   0.87    0.00    5.47
 1990 321   137   134  144.4    0.0  144.4   0.00   1.95  175.5   73.8   70.6    2.0   1.95   0.84    0.00    5.63
 1990 322   138   135  144.8    0.0  144.8   0.00   1.95  176.4   72.7   72.2    2.0   1.95   0.83    0.00    5.79
 1990 323   139   136  145.3    0.0  145.3   0.00   1.94  177.4   71.2   74.1    1.9   1.94   0.83    0.00    5.95
 1990 324   140   137  145.7    0.0  145.7   0.00   1.95  178.5   70.2   75.5    1.9   1.95   0.85    0.00    6.11
 1990 325   141   138  145.9    0.0  145.9   0.00   1.94  179.5   68.8   77.1    1.9   1.94   0.85    0.00    6.28
 1990 326   142   139  145.9    0.0  145.9   0.00   1.94  180.7   67.4   78.6    1.9   1.94   0.85    0.00    6.45
 1990 327   143   140  145.7    0.0  145.7   0.00   1.94  182.0   65.9   79.8    1.9   1.94   0.86    0.00    6.63
 1990 328   144   141  145.1    0.0  145.1   0.00   1.92  183.1   64.1   81.0    1.9   1.92   0.88    0.00    6.81
 1990 329   145   142  145.1    4.9  140.2   1.70   1.86  184.3   61.9   78.3    1.9   1.86   0.90    0.00    7.00
 1990 330   146   143  145.4    8.9  136.5   1.70   1.81  185.3   60.3   76.2    1.8   1.81   0.91    0.00    7.20
 1990 331   147   144  145.7   11.0  134.7   1.70   1.79  186.2   59.5   75.2    1.8   1.79   0.91    0.00    7.40
 1990 332   148   145  146.1   13.6  132.5   1.70   1.76  187.3   58.5   74.0    1.8   1.76   0.90    0.00    7.61
 1990 333   149   146  146.5   17.3  129.2   1.70   1.71  188.2   57.0   72.1    1.7   1.71   0.90    0.00    7.82
 1990 334   150   147  146.9   21.5  125.4   1.70   1.66  189.1   55.4   70.0    1.7   1.66   0.91    0.00    8.03
 1990 335   151   148  147.4   25.6  121.7   1.70   1.61  189.9   53.8   68.0    1.6   1.61   0.91    0.00    8.24
 1990 336   152   149  147.8   29.0  118.9   1.70   1.58  190.8   52.6   66.2    1.6   1.58   0.92    0.00    8.45
 1990 337   153   150  148.3   31.6  116.7   1.69   1.55  191.6   51.5   65.2    1.5   1.55   0.91    0.00    8.67
 1990 338   154   151  148.7   35.1  113.7   1.69   1.51  192.4   50.2   63.5    1.5   1.51   0.91    0.00    8.89
 1990 339   155   152  149.3   39.8  109.5   1.68   1.45  193.2   48.4   61.1    1.5   1.45   0.92    0.00    9.11
 1990 340   156   153  149.8   44.0  105.9   1.67   1.40  194.1   46.8   59.1    1.4   1.40   0.92    0.00    9.33
 1990 341   157   154  150.3   47.7  102.5   1.66   1.36  194.7   45.3   57.3    1.4   1.36   0.92    0.00    9.55
 1990 342   158   155  150.7   50.7  100.1   1.65   1.33  195.4   44.2   55.9    1.3   1.33   0.91    0.00    9.78
 1990 343   159   156  151.3   53.0   98.3   1.65   1.30  196.2   43.4   54.9    1.3   1.30   0.92    0.00   10.00
 1990 344   160   157  151.5   55.6   95.9   1.64   1.27  196.6   42.4   53.6    1.3   1.27   0.92    0.00   10.23
 1990 345   161   158  151.9   58.9   93.0   1.63   1.23  197.1   41.1   51.9    1.2   1.23   0.92    0.00   10.45
 1990 346   162   159  152.3   60.9   91.4   1.62   1.21  197.7   40.4   51.0    1.2   1.21   0.92    0.00   10.68
 1990 347   163   160  152.8   63.8   88.9   1.61   1.18  198.3   39.3   49.6    1.2   1.18   0.92    0.00   10.91
 1990 348   164   161  153.3   65.8   87.5   1.60   1.16  199.1   38.7   48.9    1.2   1.16   0.91    0.00   11.14
 1990 349   165   162  153.9   68.6   85.3   1.59   1.13  199.9   37.7   47.6    1.1   1.13   0.91    0.00   11.37
 1990 350   166   163  154.5   72.3   82.1   1.58   1.09  200.7   36.3   45.9    1.1   1.09   0.90    0.00   11.60
 1990 351   167   164  155.1   76.2   78.9   1.56   1.05  201.6   35.0   43.9    1.1   1.05   0.91    0.00   11.83
 1990 352   168   165  155.7   79.5   76.1   1.55   1.01  202.3   33.6   42.5    1.0   1.01   0.91    0.00   12.06
 1990 353   169   166  156.1   82.4   73.7   1.54   0.98  202.9   32.5   41.1    1.0   0.98   0.90    0.00   12.29
 1990 354   170   167  156.8   85.3   71.4   1.52   0.95  203.8   31.5   39.9    0.9   0.95   0.90    0.00   12.53
 1990 355   171   168  157.5   88.8   68.7   1.51   0.91  204.7   30.3   38.4    0.9   0.91   0.90    0.00   12.76
 1990 356   172   169  158.1   92.0   66.0   1.49   0.89  205.5   29.6   36.4    0.9   0.89   0.91    0.00   13.00
 1990 357   173   170  158.5   95.2   63.3   1.48   0.85  206.1   28.3   34.9    0.9   0.85   0.91    0.00   13.24
 1990 358   174   171  158.9   97.7   61.2   1.46   0.82  206.6   27.5   33.7    0.8   0.82   0.92    0.00   13.47
 1990 359   175   172  159.4   99.9   59.5   1.45   0.79  207.3   26.3   33.2    0.8   0.79   0.92    0.00   13.71
 1990 360   176   173  160.3  102.9   57.4   1.43   0.76  208.4   25.3   32.0    0.8   0.76   0.92    0.00   13.95
 1990 361   177   174  161.0  105.7   55.3   1.42   0.73  209.3   24.4   30.9    0.7   0.73   0.92    0.00   14.19
 1990 362   178   175  161.9  107.3   54.6   1.41   0.72  210.4   24.1   30.5    0.7   0.72   0.92    0.00   14.43
 1990 363   179   176  162.6  108.6   54.0   1.40   0.72  211.3   23.8   30.1    0.7   0.72   0.91    0.00   14.67
 1990 364   180   177  163.3  110.5   52.7   1.39   0.70  212.2   23.3   29.4    0.7   0.70   0.91    0.00   14.91
 1990 365   181   178  164.0  113.1   50.9   1.37   0.67  213.1   22.5   28.4    0.7   0.67   0.92    0.00   15.16
 1991 001   182   179  164.6  115.6   49.1   1.35   0.65  213.9   21.7   27.4    0.7   0.65   0.92    0.00   15.40
 1991 002   183   180  165.3  118.0   47.4   1.34   0.63  214.8   21.0   26.4    0.6   0.63   0.93    0.00   15.65
 1991 003   184   181  166.0  120.2   45.8   1.32   0.61  215.6   20.3   25.5    0.6   0.61   0.94    0.00   15.89
 1991 004   185   182  166.8  122.2   44.6   1.31   0.59  216.5   19.7   24.9    0.6   0.59   0.94    0.00   16.14
 1991 005   186   183  167.5  124.0   43.4   1.29   0.58  217.4   19.2   24.3    0.6   0.58   0.95    0.00   16.39
 1991 006   187   184  168.2  125.9   42.3   1.28   0.56  218.2   18.7   23.6    0.6   0.56   0.96    0.00   16.63
 1991 007   188   185  168.2  125.9   42.3   1.28   0.56  219.1   18.7   23.6    0.6   0.56   0.96    0.00   16.63
 1991 008   189   186  168.2  125.9   42.3   1.28   0.56  219.9   18.7   23.6    0.6   0.56   0.96    0.00   16.63
 1991 009   190   187  168.2  125.9   42.3   1.28   0.56  220.7   18.7   23.6    0.6   0.56   0.96    0.00   16.63

*DSSAT Cropping System Model Ver. 4.0.2.000               Jul 19, 2016; 16:44:49

*RUN   2        : UYMZ                    
 MODEL          : MZCER040 - Maize           
 EXPERIMENT     : UYMZ0040 MZ    late to create DSS                             
 TREATMENT  1   : UYMZ                    

@YEAR DOY   DAS   DAP   CNAD   GNAD   VNAD   GN%D   VN%D   NUPC   LNAD   SNAD   LN%D   SN%D   RN%D   SNN0C   SNN1C
 1991 187     3     0    0.0    0.0    0.0   0.00   0.00    0.0    0.0    0.0    0.0   0.00   0.00    0.00    0.00
 1991 188     4     1    0.0    0.0    0.0   0.00   0.00    0.0    0.0    0.0    0.0   0.00   0.00    0.00    0.00
 1991 189     5     2    0.0    0.0    0.0   0.00   0.00    0.0    0.0    0.0    0.0   0.00   0.00    0.00    0.00
 1991 190     6     3    0.0    0.0    0.0   0.00   0.00    0.0    0.0    0.0    0.0   0.00   0.00    0.00    0.00
 1991 191     7     4    0.0    0.0    0.0   0.00   0.00    0.0    0.0    0.0    0.0   0.00   0.00    0.00    0.00
 1991 192     8     5    0.0    0.0    0.0   0.00   0.00    0.0    0.0    0.0    0.0   0.00   0.00    0.00    0.00
 1991 193     9     6    0.0    0.0    0.0   0.00   0.00    0.0    0.0    0.0    0.0   0.00   0.00    0.00    0.00
 1991 194    10     7    0.0    0.0    0.0   0.00   0.00    0.0    0.0    0.0    0.0   0.00   0.00    0.00    0.00
 1991 195    11     8    0.0    0.0    0.0   0.00   0.00    0.0    0.0    0.0    0.0   0.00   0.00    0.00    0.00
 1991 196    12     9    0.0    0.0    0.0   0.00   0.00    0.0    0.0    0.0    0.0   0.00   0.00    0.00    0.00
 1991 197    13    10    0.0    0.0    0.0   0.00   0.00    0.0    0.0    0.0    0.0   0.00   0.00    0.00    0.00
 1991 198    14    11    0.0    0.0    0.0   0.00   0.00    0.0    0.0    0.0    0.0   0.00   0.00    0.00    0.00
 1991 199    15    12    0.0    0.0    0.0   0.00   0.00    0.0    0.0    0.0    0.0   0.00   0.00    0.00    0.00
 1991 200    16    13    0.0    0.0    0.0   0.00   0.00    0.0    0.0    0.0    0.0   0.00   0.00    0.00    0.00
 1991 201    17    14    0.0    0.0    0.0   0.00   0.00    0.0    0.0    0.0    0.0   0.00   0.00    0.00    0.00
 1991 202    18    15    0.0    0.0    0.0   0.00   0.00    0.0    0.0    0.0    0.0   0.00   0.00    0.00    0.00
 1991 203    19    16    0.0    0.0    0.0   0.00   0.00    0.0    0.0    0.0    0.0   0.00   0.00    0.00    0.00
 1991 204    20    17    0.0    0.0    0.0   0.00   0.00    0.0    0.0    0.0    0.0   0.00   0.00    0.00    0.00
 1991 205    21    18    0.0    0.0    0.0   0.00   0.00    0.0    0.0    0.0    0.0   0.00   0.00    0.00    0.00
 1991 206    22    19    0.0    0.0    0.0   0.00   0.00    0.0    0.0    0.0    0.0   0.00   0.00    0.00    0.00
 1991 207    23    20    0.0    0.0    0.0   0.00   0.00    0.0    0.0    0.0    0.0   0.00   0.00    0.00    0.00
 1991 208    24    21    0.0    0.0    0.0   0.00   0.00    0.0    0.0    0.0    0.0   0.00   0.00    0.00    0.00
 1991 209    25    22    1.2    0.0    1.2   0.00   4.40    0.0    0.6    0.6    4.4   4.40   0.00    0.00    0.00
 1991 210    26    23    1.3    0.0    1.3   0.00   4.51    0.2    0.6    0.6    4.5   4.51   1.09    0.00    0.00
 1991 211    27    24    1.3    0.0    1.3   0.00   4.51    0.2    0.6    0.6    4.5   4.51   1.08    0.00    0.00
 1991 212    28    25    1.3    0.0    1.3   0.00   4.49    0.2    0.6    0.6    4.5   4.49   1.14    0.00    0.00
 1991 213    29    26    1.3    0.0    1.3   0.00   4.49    0.2    0.6    0.6    4.5   4.49   1.15    0.00    0.00
 1991 214    30    27    1.3    0.0    1.3   0.00   4.49    0.2    0.6    0.6    4.5   4.49   1.17    0.00    0.00
 1991 215    31    28    1.3    0.0    1.3   0.00   4.49    0.2    0.6    0.6    4.5   4.49   1.17    0.00    0.00
 1991 216    32    29    1.3    0.0    1.3   0.00   4.49    0.2    0.6    0.6    4.5   4.49   1.18    0.00    0.00
 1991 217    33    30    1.3    0.0    1.3   0.00   4.49    0.2    0.6    0.6    4.5   4.49   1.17    0.00    0.00
 1991 218    34    31    1.3    0.0    1.3   0.00   4.49    0.2    0.6    0.6    4.5   4.49   1.18    0.00    0.00
 1991 219    35    32    1.3    0.0    1.3   0.00   4.49    0.2    0.6    0.6    4.5   4.49   1.18    0.00    0.00
 1991 220    36    33    1.3    0.0    1.3   0.00   4.49    0.2    0.6    0.6    4.5   4.49   1.18    0.00    0.00
 1991 221    37    34    1.3    0.0    1.3   0.00   4.49    0.2    0.6    0.6    4.5   4.49   1.17    0.00    0.00
 1991 222    38    35    1.3    0.0    1.3   0.00   4.49    0.2    0.6    0.6    4.5   4.49   1.17    0.00    0.00
 1991 223    39    36    1.3    0.0    1.3   0.00   4.49    0.2    0.6    0.6    4.5   4.49   1.17    0.00    0.00
 1991 224    40    37    1.3    0.0    1.3   0.00   4.49    0.2    0.6    0.6    4.5   4.49   1.14    0.00    0.00
 1991 225    41    38    1.3    0.0    1.3   0.00   4.49    0.2    0.6    0.6    4.5   4.49   1.12    0.00    0.00
 1991 226    42    39    1.3    0.0    1.3   0.00   4.49    0.2    0.6    0.6    4.5   4.49   1.06    0.00    0.00
 1991 227    43    40    1.3    0.0    1.3   0.00   4.49    0.2    0.6    0.6    4.5   4.49   1.01    0.00    0.00
 1991 228    44    41    1.2    0.0    1.2   0.00   4.14    0.2    0.6    0.6    4.1   4.14   1.18    0.00    0.00
 1991 229    45    42    1.3    0.0    1.3   0.00   3.55    0.3    0.8    0.5    3.6   3.55   1.21    0.00    0.00
 1991 230    46    43    1.5    0.0    1.5   0.00   3.56    0.5    1.0    0.5    3.6   3.56   1.12    0.00    0.00
 1991 231    47    44    1.8    0.0    1.8   0.00   3.55    0.9    1.3    0.5    3.6   3.55   1.23    0.00    0.01
 1991 232    48    45    2.2    0.0    2.2   0.00   3.55    1.3    1.7    0.5    3.5   3.55   1.16    0.00    0.01
 1991 233    49    46    2.5    0.0    2.5   0.00   3.54    1.8    2.1    0.5    3.5   3.54   1.31    0.00    0.01
 1991 234    50    47    3.0    0.0    3.0   0.00   3.46    2.4    2.5    0.5    3.5   3.46   1.27    0.00    0.01
 1991 235    51    48    3.6    0.0    3.6   0.00   3.59    3.2    3.1    0.5    3.6   3.59   1.35    0.00    0.02
 1991 236    52    49    4.1    0.0    4.1   0.00   3.71    4.0    3.6    0.5    3.7   3.71   1.32    0.00    0.02
 1991 237    53    50    4.5    0.0    4.5   0.00   3.57    4.6    4.0    0.5    3.6   3.57   1.24    0.00    0.03
 1991 238    54    51    5.2    0.0    5.2   0.00   3.77    5.1    4.7    0.5    3.8   3.77   1.12    0.00    0.03
 1991 239    55    52    5.6    0.0    5.6   0.00   3.82    5.6    5.1    0.5    3.8   3.82   1.13    0.00    0.04
 1991 240    56    53    5.9    0.0    5.9   0.00   3.63    6.2    5.4    0.5    3.6   3.63   1.20    0.00    0.04
 1991 241    57    54    6.6    0.0    6.6   0.00   3.54    7.0    6.1    0.5    3.5   3.54   1.18    0.00    0.05
 1991 242    58    55    7.4    0.0    7.4   0.00   3.47    7.8    7.0    0.5    3.5   3.47   1.10    0.00    0.06
 1991 243    59    56    8.5    0.0    8.5   0.00   3.73    9.0    8.0    0.5    3.7   3.73   1.13    0.00    0.07
 1991 244    60    57    9.1    0.0    9.1   0.00   3.79    9.9    8.5    0.5    3.8   3.79   1.24    0.00    0.08
 1991 245    61    58    9.5    0.0    9.5   0.00   3.69   10.2    9.0    0.5    3.7   3.69   1.12    0.00    0.09
 1991 246    62    59   10.1    0.0   10.1   0.00   3.51   11.1    9.6    0.5    3.5   3.51   1.17    0.00    0.10
 1991 247    63    60   11.2    0.0   11.2   0.00   3.43   13.0   10.8    0.5    3.4   3.43   1.27    0.00    0.11
 1991 248    64    61   12.7    0.0   12.7   0.00   3.59   15.2   12.2    0.5    3.6   3.59   1.28    0.00    0.12
 1991 249    65    62   13.8    0.0   13.8   0.00   3.55   15.8   13.3    0.5    3.5   3.55   1.09    0.00    0.14
 1991 250    66    63   14.8    0.0   14.8   0.00   3.54   17.0   14.3    0.5    3.5   3.54   1.10    0.00    0.16
 1991 251    67    64   16.9    0.0   16.9   0.00   3.81   19.3   16.4    0.5    3.8   3.81   1.12    0.00    0.17
 1991 252    68    65   17.5    0.0   17.5   0.00   3.68   21.0   17.0    0.5    3.7   3.68   1.25    0.00    0.19
 1991 253    69    66   18.5    0.0   18.5   0.00   3.58   22.8   18.0    0.5    3.6   3.58   1.24    0.00    0.22
 1991 254    70    67   20.3    0.0   20.3   0.00   3.54   25.7   19.8    0.5    3.5   3.54   1.24    0.00    0.24
 1991 255    71    68   22.6    0.0   22.6   0.00   3.50   28.7   22.1    0.6    3.5   3.50   1.21    0.00    0.28
 1991 256    72    69   25.7    0.0   25.7   0.00   3.45   31.9   25.0    0.7    3.5   3.45   1.14    0.00    0.31
 1991 257    73    70   26.9    0.0   26.9   0.00   3.43   33.0   26.2    0.7    3.4   3.43   1.10    0.00    0.35
 1991 258    74    71   28.1    0.0   28.1   0.00   3.50   34.4   27.3    0.8    3.5   3.50   1.12    0.00    0.39
 1991 259    75    72   30.0    0.0   30.0   0.00   3.39   36.8   29.1    0.9    3.4   3.39   1.12    0.00    0.42
 1991 260    76    73   32.4    0.0   32.4   0.00   3.36   38.8   31.3    1.1    3.4   3.36   1.07    0.00    0.46
 1991 261    77    74   34.4    0.0   34.4   0.00   3.33   42.9   33.1    1.3    3.3   3.33   1.20    0.00    0.50
 1991 262    78    75   35.8    0.0   35.8   0.00   3.33   46.1   34.3    1.5    3.3   3.33   1.25    0.00    0.55
 1991 263    79    76   37.7    0.0   37.7   0.00   3.30   47.7   35.9    1.7    3.3   3.30   1.14    0.00    0.61
 1991 264    80    77   41.0    0.0   41.0   0.00   3.26   50.9   38.8    2.3    3.3   3.26   1.09    0.00    0.66
 1991 265    81    78   43.1    0.0   43.1   0.00   3.24   55.3   40.5    2.6    3.2   3.24   1.19    0.00    0.72
 1991 266    82    79   44.4    0.0   44.4   0.00   3.26   58.4   41.6    2.8    3.3   3.26   1.23    0.00    0.78
 1991 267    83    80   45.5    0.0   45.5   0.00   3.22   60.6   42.4    3.0    3.2   3.22   1.19    0.00    0.86
 1991 268    84    81   47.4    0.0   47.4   0.00   3.19   63.4   43.9    3.5    3.2   3.19   1.16    0.00    0.94
 1991 269    85    82   49.6    0.0   49.6   0.00   3.17   67.1   45.7    4.0    3.2   3.17   1.16    0.00    1.03
 1991 270    86    83   53.6    0.0   53.6   0.00   3.14   71.1   48.6    5.0    3.1   3.14   1.11    0.00    1.12
 1991 271    87    84   55.4    0.0   55.4   0.00   3.14   75.3   50.0    5.4    3.1   3.14   1.17    0.00    1.21
 1991 272    88    85   56.8    0.0   56.8   0.00   3.12   77.9   50.9    5.9    3.1   3.12   1.16    0.00    1.32
 1991 273    89    86   58.9    0.0   58.9   0.00   3.09   81.0   52.3    6.5    3.1   3.09   1.14    0.00    1.43
 1991 274    90    87   60.6    0.0   60.6   0.00   3.08   84.1   53.5    7.0    3.1   3.08   1.14    0.00    1.55
 1991 275    91    88   62.1    0.0   62.1   0.00   3.07   87.3   54.6    7.5    3.1   3.07   1.15    0.00    1.67
 1991 276    92    89   63.6    0.0   63.6   0.00   3.05   90.4   55.5    8.1    3.1   3.05   1.14    0.00    1.80
 1991 277    93    90   65.6    0.0   65.6   0.00   3.03   93.1   56.8    8.8    3.0   3.03   1.12    0.00    1.94
 1991 278    94    91   68.0    0.0   68.0   0.00   3.06   94.5   58.6    9.5    3.1   3.06   1.08    0.00    2.08
 1991 279    95    92   68.7    0.0   68.7   0.00   3.05   96.6   59.0    9.7    3.1   3.05   1.12    0.00    2.22
 1991 280    96    93   69.4    0.0   69.4   0.00   3.05   97.9   59.4   10.0    3.0   3.05   1.13    0.00    2.36
 1991 281    97    94   70.3    0.0   70.3   0.00   3.02  100.7   59.9   10.4    3.0   3.02   1.15    0.00    2.51
 1991 282    98    95   71.8    0.0   71.8   0.00   2.98  102.7   60.7   11.2    3.0   2.98   1.11    0.00    2.67
 1991 283    99    96   73.5    0.0   73.5   0.00   2.91  105.3   61.3   12.1    2.9   2.91   1.09    0.00    2.83
 1991 284   100    97   75.0    0.0   75.0   0.00   2.82  107.5   61.7   13.2    2.8   2.82   1.07    0.00    2.99
 1991 285   101    98   76.4    0.0   76.4   0.00   2.67  109.3   61.6   14.8    2.7   2.67   1.05    0.00    3.16
 1991 286   102    99   77.9    0.0   77.9   0.00   2.45  110.9   60.7   17.1    2.4   2.45   1.04    0.00    3.33
 1991 287   103   100   79.3    0.0   79.3   0.00   2.35  112.4   60.6   18.7    2.3   2.35   1.05    0.00    3.50
 1991 288   104   101   80.5    0.0   80.5   0.00   2.30  113.6   60.8   19.7    2.3   2.30   1.05    0.00    3.67
 1991 289   105   102   80.9    0.0   80.9   0.00   2.23  114.1   60.3   20.6    2.2   2.23   1.06    0.00    3.84
 1991 290   106   103   81.6    0.0   81.6   0.00   2.21  114.8   60.4   21.2    2.2   2.21   1.04    0.00    4.01
 1991 291   107   104   82.3    0.0   82.3   0.00   2.15  115.7   60.1   22.2    2.1   2.15   0.99    0.00    4.18
 1991 292   108   105   83.1    0.0   83.1   0.00   1.96  116.6   60.1   23.0    2.0   1.96   0.99    0.00    4.35
 1991 293   109   106   83.7    0.0   83.7   0.00   1.83  117.3   59.3   24.4    1.8   1.83   0.97    0.00    4.52
 1991 294   110   107   84.3    0.0   84.3   0.00   1.72  117.9   58.1   26.2    1.7   1.72   0.97    0.00    4.69
 1991 295   111   108   85.0    0.0   85.0   0.00   1.62  118.7   56.9   28.1    1.6   1.62   0.97    0.00    4.86
 1991 296   112   109   85.7    0.0   85.7   0.00   1.60  119.4   56.7   29.0    1.6   1.60   0.97    0.00    5.04
 1991 297   113   110   86.3    0.0   86.3   0.00   1.58  120.1   56.6   29.8    1.6   1.58   0.97    0.00    5.21
 1991 298   114   111   87.0    0.0   87.0   0.00   1.55  120.9   56.4   30.6    1.6   1.55   0.98    0.00    5.38
 1991 299   115   112   87.6    0.0   87.6   0.00   1.50  121.5   55.6   32.0    1.5   1.50   0.96    0.00    5.55
 1991 300   116   113   89.3    0.0   89.3   0.00   1.49  123.3   55.8   33.5    1.5   1.49   0.96    0.00    5.73
 1991 301   117   114   90.9    0.0   90.9   0.00   1.48  125.0   56.1   34.8    1.5   1.48   0.97    0.00    5.90
 1991 302   118   115   92.4    0.0   92.4   0.00   1.47  126.6   56.4   36.0    1.5   1.47   0.97    0.00    6.07
 1991 303   119   116   93.8    0.0   93.8   0.00   1.47  128.1   56.6   37.1    1.5   1.47   0.98    0.00    6.25
 1991 304   120   117   95.0    0.0   95.0   0.00   1.46  129.3   56.7   38.2    1.5   1.46   0.98    0.00    6.42
 1991 305   121   118   96.1    0.0   96.1   0.00   1.44  130.5   56.6   39.5    1.4   1.44   0.97    0.00    6.60
 1991 306   122   119   97.2    0.0   97.2   0.00   1.42  131.8   56.6   40.6    1.4   1.42   0.94    0.00    6.77
 1991 307   123   120   98.4    0.0   98.4   0.00   1.41  133.1   56.5   41.8    1.4   1.41   0.92    0.00    6.95
 1991 308   124   121   99.3    0.0   99.3   0.00   1.39  134.2   56.3   43.0    1.4   1.39   0.89    0.00    7.12
 1991 309   125   122  100.3    0.0  100.3   0.00   1.37  135.3   56.1   44.2    1.4   1.37   0.88    0.00    7.30
 1991 310   126   123  101.2    0.0  101.2   0.00   1.35  136.3   55.9   45.3    1.3   1.35   0.88    0.00    7.48
 1991 311   127   124  102.0    0.0  102.0   0.00   1.33  137.2   55.7   46.3    1.3   1.33   0.86    0.00    7.66
 1991 312   128   125  102.9    0.0  102.9   0.00   1.32  138.2   55.7   47.2    1.3   1.32   0.85    0.00    7.84
 1991 313   129   126  103.6    0.0  103.6   0.00   1.30  139.2   55.6   48.0    1.3   1.30   0.82    0.00    8.01
 1991 314   130   127  104.4    0.0  104.4   0.00   1.42  140.0   60.1   44.3    1.4   1.42   0.82    0.00    8.19
 1991 315   131   128  105.0    0.0  105.0   0.00   1.43  140.8   60.0   45.1    1.4   1.43   0.80    0.00    8.37
 1991 316   132   129  105.6    0.0  105.6   0.00   1.45  141.6   59.8   45.8    1.4   1.45   0.78    0.00    8.56
 1991 317   133   130  106.2    0.0  106.2   0.00   1.46  142.4   59.6   46.6    1.5   1.46   0.77    0.00    8.74
 1991 318   134   131  106.7    0.0  106.7   0.00   1.47  143.1   59.3   47.5    1.5   1.47   0.77    0.00    8.92
 1991 319   135   132  107.2    0.0  107.2   0.00   1.47  143.7   58.8   48.4    1.5   1.47   0.78    0.00    9.10
 1991 320   136   133  107.8    0.0  107.8   0.00   1.48  144.4   58.4   49.4    1.5   1.48   0.77    0.00    9.29
 1991 321   137   134  108.6    0.0  108.6   0.00   1.50  145.6   58.1   50.5    1.5   1.50   0.76    0.00    9.47
 1991 322   138   135  109.5    0.0  109.5   0.00   1.51  146.9   57.7   51.8    1.5   1.51   0.75    0.00    9.66
 1991 323   139   136  110.3    0.0  110.3   0.00   1.52  148.1   57.3   53.0    1.5   1.52   0.74    0.00    9.85
 1991 324   140   137  111.1    0.0  111.1   0.00   1.53  149.3   56.8   54.3    1.5   1.53   0.73    0.00   10.04
 1991 325   141   138  111.8    0.0  111.8   0.00   1.54  150.4   56.2   55.6    1.5   1.54   0.72    0.00   10.23
 1991 326   142   139  112.4    0.0  112.4   0.00   1.55  151.5   55.3   57.1    1.5   1.55   0.72    0.00   10.42
 1991 327   143   140  113.1    0.0  113.1   0.00   1.55  152.5   54.3   58.7    1.5   1.55   0.72    0.00   10.62
 1991 328   144   141  113.6    0.0  113.6   0.00   1.56  153.5   53.7   59.9    1.6   1.56   0.73    0.00   10.82
 1991 329   145   142  114.1    0.0  114.1   0.00   1.58  154.5   53.0   61.2    1.6   1.58   0.74    0.00   11.02
 1991 330   146   143  114.6    0.0  114.6   0.00   1.59  155.4   52.2   62.4    1.6   1.59   0.75    0.00   11.22
 1991 331   147   144  115.0    2.0  113.0   1.49   1.57  156.1   51.5   61.5    1.6   1.57   0.75    0.00   11.42
 1991 332   148   145  115.4    5.2  110.2   1.49   1.53  156.9   50.2   60.0    1.5   1.53   0.75    0.00   11.63
 1991 333   149   146  115.9    8.5  107.4   1.48   1.49  157.7   48.9   58.5    1.5   1.49   0.76    0.00   11.84
 1991 334   150   147  116.5   11.8  104.6   1.48   1.45  158.7   47.7   57.0    1.5   1.45   0.76    0.00   12.05
 1991 335   151   148  117.1   14.8  102.4   1.47   1.42  159.8   46.6   55.7    1.4   1.42   0.76    0.00   12.26
 1991 336   152   149  117.8   18.0   99.8   1.46   1.39  161.0   45.5   54.3    1.4   1.39   0.77    0.00   12.47
 1991 337   153   150  118.6   21.3   97.3   1.46   1.35  162.2   44.3   53.0    1.4   1.35   0.78    0.00   12.69
 1991 338   154   151  119.2   24.5   94.7   1.45   1.31  163.3   43.2   51.6    1.3   1.31   0.78    0.00   12.90
 1991 339   155   152  119.8   27.6   92.2   1.44   1.28  164.3   42.0   50.2    1.3   1.28   0.79    0.00   13.12
 1991 340   156   153  120.4   30.8   89.6   1.44   1.24  165.2   40.8   48.8    1.2   1.24   0.79    0.00   13.35
 1991 341   157   154  121.1   33.9   87.3   1.43   1.21  166.4   39.8   47.5    1.2   1.21   0.80    0.00   13.57
 1991 342   158   155  121.8   36.9   84.9   1.42   1.18  167.5   38.7   46.2    1.2   1.18   0.80    0.00   13.80
 1991 343   159   156  122.4   39.5   82.9   1.41   1.16  168.4   38.0   44.9    1.2   1.16   0.81    0.00   14.02
 1991 344   160   157  122.9   42.5   80.4   1.41   1.12  169.2   36.6   43.8    1.1   1.12   0.81    0.00   14.25
 1991 345   161   158  123.5   45.4   78.1   1.40   1.08  170.1   35.6   42.5    1.1   1.08   0.82    0.00   14.48
 1991 346   162   159  124.1   47.8   76.3   1.39   1.06  171.0   35.0   41.4    1.1   1.06   0.83    0.00   14.71
 1991 347   163   160  124.7   50.4   74.2   1.38   1.03  171.9   33.8   40.4    1.0   1.03   0.83    0.00   14.95
 1991 348   164   161  125.2   52.5   72.7   1.38   1.01  172.6   33.2   39.5    1.0   1.01   0.84    0.00   15.18
 1991 349   165   162  125.6   54.7   70.9   1.37   0.99  173.3   32.6   38.3    1.0   0.99   0.84    0.00   15.42
 1991 350   166   163  126.0   57.3   68.7   1.36   0.96  173.9   31.4   37.3    1.0   0.96   0.85    0.00   15.66
 1991 351   167   164  126.5   60.0   66.5   1.35   0.92  174.6   30.3   36.2    0.9   0.92   0.85    0.00   15.89
 1991 352   168   165  127.3   62.6   64.7   1.34   0.90  175.8   29.5   35.2    0.9   0.90   0.85    0.00   16.13
 1991 353   169   166  128.0   65.2   62.8   1.33   0.87  176.7   28.6   34.2    0.9   0.87   0.86    0.00   16.37
 1991 354   170   167  128.4   67.7   60.8   1.32   0.84  177.4   27.7   33.1    0.8   0.84   0.86    0.00   16.61
 1991 355   171   168  129.1   70.1   59.0   1.31   0.82  178.3   26.9   32.1    0.8   0.82   0.86    0.00   16.86
 1991 356   172   169  129.9   72.5   57.3   1.30   0.80  179.4   26.4   30.9    0.8   0.80   0.87    0.00   17.10
 1991 357   173   170  130.5   74.9   55.7   1.29   0.78  180.3   25.5   30.2    0.8   0.78   0.88    0.00   17.35
 1991 358   174   171  131.1   77.2   53.9   1.28   0.75  181.1   24.5   29.3    0.7   0.75   0.88    0.00   17.59
 1991 359   175   172  131.9   79.3   52.6   1.27   0.73  182.2   24.0   28.7    0.7   0.73   0.89    0.00   17.84
 1991 360   176   173  132.6   80.6   52.0   1.26   0.72  183.2   23.7   28.3    0.7   0.72   0.89    0.00   18.09
 1991 361   177   174  133.3   82.1   51.1   1.25   0.71  184.1   23.3   27.8    0.7   0.71   0.89    0.00   18.34
 1991 362   178   175  134.2   84.0   50.2   1.24   0.70  185.2   22.9   27.3    0.7   0.70   0.90    0.00   18.59
 1991 363   179   176  134.8   86.0   48.9   1.23   0.68  186.1   22.3   26.6    0.7   0.68   0.90    0.00   18.84
 1991 364   180   177  135.5   88.0   47.5   1.22   0.66  187.1   21.7   25.9    0.7   0.66   0.91    0.00   19.09
 1991 365   181   178  136.2   90.0   46.2   1.21   0.64  188.0   21.2   25.0    0.6   0.64   0.92    0.00   19.35
 1992 001   182   179  137.0   92.0   45.0   1.20   0.64  189.0   21.0   24.0    0.6   0.64   0.93    0.00   19.60
 1992 002   183   180  137.7   93.9   43.8   1.19   0.63  189.9   20.6   23.2    0.6   0.63   0.93    0.00   19.86
 1992 003   184   181  137.7   93.9   43.8   1.19   0.63  190.7   20.6   23.2    0.6   0.63   0.93    0.00   19.86
 1992 004   185   182  137.7   93.9   43.8   1.19   0.63  191.6   20.6   23.2    0.6   0.63   0.93    0.00   19.86
 1992 005   186   183  137.7   93.9   43.8   1.19   0.63  192.5   20.6   23.2    0.6   0.63   0.93    0.00   19.86
 1992 006   187   184  137.7   93.9   43.8   1.19   0.63  193.4   20.6   23.2    0.6   0.63   0.93    0.00   19.86

*DSSAT Cropping System Model Ver. 4.0.2.000               Jul 19, 2016; 16:44:49

*RUN   3        : UYMZ                    
 MODEL          : MZCER040 - Maize           
 EXPERIMENT     : UYMZ0040 MZ    late to create DSS                             
 TREATMENT  1   : UYMZ                    

@YEAR DOY   DAS   DAP   CNAD   GNAD   VNAD   GN%D   VN%D   NUPC   LNAD   SNAD   LN%D   SN%D   RN%D   SNN0C   SNN1C
 1992 187     3     0    0.0    0.0    0.0   0.00   0.00    0.0    0.0    0.0    0.0   0.00   0.00    0.00    0.00
 1992 188     4     1    0.0    0.0    0.0   0.00   0.00    0.0    0.0    0.0    0.0   0.00   0.00    0.00    0.00
 1992 189     5     2    0.0    0.0    0.0   0.00   0.00    0.0    0.0    0.0    0.0   0.00   0.00    0.00    0.00
 1992 190     6     3    0.0    0.0    0.0   0.00   0.00    0.0    0.0    0.0    0.0   0.00   0.00    0.00    0.00
 1992 191     7     4    0.0    0.0    0.0   0.00   0.00    0.0    0.0    0.0    0.0   0.00   0.00    0.00    0.00
 1992 192     8     5    0.0    0.0    0.0   0.00   0.00    0.0    0.0    0.0    0.0   0.00   0.00    0.00    0.00
 1992 193     9     6    0.0    0.0    0.0   0.00   0.00    0.0    0.0    0.0    0.0   0.00   0.00    0.00    0.00
 1992 194    10     7    0.0    0.0    0.0   0.00   0.00    0.0    0.0    0.0    0.0   0.00   0.00    0.00    0.00
 1992 195    11     8    0.0    0.0    0.0   0.00   0.00    0.0    0.0    0.0    0.0   0.00   0.00    0.00    0.00
 1992 196    12     9    0.0    0.0    0.0   0.00   0.00    0.0    0.0    0.0    0.0   0.00   0.00    0.00    0.00
 1992 197    13    10    0.0    0.0    0.0   0.00   0.00    0.0    0.0    0.0    0.0   0.00   0.00    0.00    0.00
 1992 198    14    11    0.0    0.0    0.0   0.00   0.00    0.0    0.0    0.0    0.0   0.00   0.00    0.00    0.00
 1992 199    15    12    0.0    0.0    0.0   0.00   0.00    0.0    0.0    0.0    0.0   0.00   0.00    0.00    0.00
 1992 200    16    13    0.0    0.0    0.0   0.00   0.00    0.0    0.0    0.0    0.0   0.00   0.00    0.00    0.00
 1992 201    17    14    0.0    0.0    0.0   0.00   0.00    0.0    0.0    0.0    0.0   0.00   0.00    0.00    0.00
 1992 202    18    15    0.0    0.0    0.0   0.00   0.00    0.0    0.0    0.0    0.0   0.00   0.00    0.00    0.00
 1992 203    19    16    0.0    0.0    0.0   0.00   0.00    0.0    0.0    0.0    0.0   0.00   0.00    0.00    0.00
 1992 204    20    17    0.0    0.0    0.0   0.00   0.00    0.0    0.0    0.0    0.0   0.00   0.00    0.00    0.00
 1992 205    21    18    0.0    0.0    0.0   0.00   0.00    0.0    0.0    0.0    0.0   0.00   0.00    0.00    0.00
 1992 206    22    19    0.0    0.0    0.0   0.00   0.00    0.0    0.0    0.0    0.0   0.00   0.00    0.00    0.00
 1992 207    23    20    0.0    0.0    0.0   0.00   0.00    0.0    0.0    0.0    0.0   0.00   0.00    0.00    0.00
 1992 208    24    21    0.0    0.0    0.0   0.00   0.00    0.0    0.0    0.0    0.0   0.00   0.00    0.00    0.00
 1992 209    25    22    0.0    0.0    0.0   0.00   0.00    0.0    0.0    0.0    0.0   0.00   0.00    0.00    0.00
 1992 210    26    23    0.0    0.0    0.0   0.00   0.00    0.0    0.0    0.0    0.0   0.00   0.00    0.00    0.00
 1992 211    27    24    0.0    0.0    0.0   0.00   0.00    0.0    0.0    0.0    0.0   0.00   0.00    0.00    0.00
 1992 212    28    25    0.0    0.0    0.0   0.00   0.00    0.0    0.0    0.0    0.0   0.00   0.00    0.00    0.00
 1992 213    29    26    0.0    0.0    0.0   0.00   0.00    0.0    0.0    0.0    0.0   0.00   0.00    0.00    0.00
 1992 214    30    27    0.0    0.0    0.0   0.00   0.00    0.0    0.0    0.0    0.0   0.00   0.00    0.00    0.00
 1992 215    31    28    0.0    0.0    0.0   0.00   0.00    0.0    0.0    0.0    0.0   0.00   0.00    0.00    0.00
 1992 216    32    29    0.0    0.0    0.0   0.00   0.00    0.0    0.0    0.0    0.0   0.00   0.00    0.00    0.00
 1992 217    33    30    0.0    0.0    0.0   0.00   0.00    0.0    0.0    0.0    0.0   0.00   0.00    0.00    0.00
 1992 218    34    31    0.0    0.0    0.0   0.00   0.00    0.0    0.0    0.0    0.0   0.00   0.00    0.00    0.00
 1992 219    35    32    0.0    0.0    0.0   0.00   0.00    0.0    0.0    0.0    0.0   0.00   0.00    0.00    0.00
 1992 220    36    33    0.0    0.0    0.0   0.00   0.00    0.0    0.0    0.0    0.0   0.00   0.00    0.00    0.00
 1992 221    37    34    0.0    0.0    0.0   0.00   0.00    0.0    0.0    0.0    0.0   0.00   0.00    0.00    0.00
 1992 222    38    35    0.0    0.0    0.0   0.00   0.00    0.0    0.0    0.0    0.0   0.00   0.00    0.00    0.00
 1992 223    39    36    0.0    0.0    0.0   0.00   0.00    0.0    0.0    0.0    0.0   0.00   0.00    0.00    0.00
 1992 224    40    37    0.0    0.0    0.0   0.00   0.00    0.0    0.0    0.0    0.0   0.00   0.00    0.00    0.00
 1992 225    41    38    0.0    0.0    0.0   0.00   0.00    0.0    0.0    0.0    0.0   0.00   0.00    0.00    0.00
 1992 226    42    39    0.0    0.0    0.0   0.00   0.00    0.0    0.0    0.0    0.0   0.00   0.00    0.00    0.00
 1992 227    43    40    0.0    0.0    0.0   0.00   0.00    0.0    0.0    0.0    0.0   0.00   0.00    0.00    0.00
 1992 228    44    41    0.0    0.0    0.0   0.00   0.00    0.0    0.0    0.0    0.0   0.00   0.00    0.00    0.00
 1992 229    45    42    1.2    0.0    1.2   0.00   4.40    0.0    0.6    0.6    4.4   4.40   0.00    0.00    0.00
 1992 230    46    43    1.3    0.0    1.3   0.00   4.53    0.2    0.6    0.6    4.5   4.53   1.08    0.00    0.00
 1992 231    47    44    1.3    0.0    1.3   0.00   4.51    0.2    0.6    0.6    4.5   4.51   1.10    0.00    0.00
 1992 232    48    45    1.3    0.0    1.3   0.00   4.50    0.2    0.6    0.6    4.5   4.50   1.11    0.00    0.00
 1992 233    49    46    1.3    0.0    1.3   0.00   4.48    0.2    0.6    0.6    4.5   4.48   1.13    0.00    0.00
 1992 234    50    47    1.2    0.0    1.2   0.00   4.46    0.2    0.6    0.6    4.5   4.46   1.15    0.00    0.00
 1992 235    51    48    1.2    0.0    1.2   0.00   4.46    0.2    0.6    0.6    4.5   4.46   1.10    0.00    0.00
 1992 236    52    49    1.2    0.0    1.2   0.00   4.42    0.2    0.6    0.6    4.4   4.42   1.18    0.00    0.00
 1992 237    53    50    1.2    0.0    1.2   0.00   4.40    0.3    0.6    0.6    4.4   4.40   1.19    0.00    0.01
 1992 238    54    51    1.2    0.0    1.2   0.00   4.38    0.3    0.6    0.6    4.4   4.38   1.19    0.00    0.01
 1992 239    55    52    1.2    0.0    1.2   0.00   4.37    0.4    0.6    0.6    4.4   4.37   1.21    0.00    0.01
 1992 240    56    53    1.2    0.0    1.2   0.00   4.34    0.4    0.6    0.6    4.3   4.34   1.22    0.00    0.01
 1992 241    57    54    1.2    0.0    1.2   0.00   4.04    0.4    0.6    0.6    4.0   4.04   1.16    0.00    0.01
 1992 242    58    55    1.3    0.0    1.3   0.00   3.60    0.5    0.8    0.5    3.6   3.60   1.16    0.00    0.01
 1992 243    59    56    1.5    0.0    1.5   0.00   3.61    0.8    1.0    0.5    3.6   3.61   1.09    0.00    0.02
 1992 244    60    57    1.8    0.0    1.8   0.00   4.02    1.1    1.2    0.6    4.0   4.02   1.17    0.00    0.02
 1992 245    61    58    1.9    0.0    1.9   0.00   4.08    1.2    1.3    0.6    4.1   4.08   1.20    0.00    0.02
 1992 246    62    59    2.0    0.0    2.0   0.00   4.01    1.3    1.4    0.6    4.0   4.01   1.14    0.00    0.02
 1992 247    63    60    2.1    0.0    2.1   0.00   3.93    1.6    1.6    0.6    3.9   3.93   1.30    0.00    0.03
 1992 248    64    61    2.3    0.0    2.3   0.00   3.88    2.0    1.7    0.5    3.9   3.88   1.31    0.00    0.03
 1992 249    65    62    2.5    0.0    2.5   0.00   3.81    2.3    1.9    0.5    3.8   3.81   1.26    0.00    0.04
 1992 250    66    63    2.7    0.0    2.7   0.00   3.82    2.8    2.2    0.5    3.8   3.82   1.25    0.00    0.04
 1992 251    67    64    3.0    0.0    3.0   0.00   3.73    3.2    2.4    0.5    3.7   3.73   1.22    0.00    0.05
 1992 252    68    65    3.3    0.0    3.3   0.00   3.67    3.4    2.8    0.5    3.7   3.67   1.09    0.00    0.05
 1992 253    69    66    3.7    0.0    3.7   0.00   3.66    4.0    3.2    0.5    3.7   3.66   1.15    0.00    0.06
 1992 254    70    67    4.2    0.0    4.2   0.00   3.61    4.6    3.7    0.5    3.6   3.61   1.17    0.00    0.07
 1992 255    71    68    4.7    0.0    4.7   0.00   3.58    5.2    4.2    0.5    3.6   3.58   1.12    0.00    0.08
 1992 256    72    69    5.3    0.0    5.3   0.00   3.67    6.3    4.8    0.5    3.7   3.67   1.23    0.00    0.09
 1992 257    73    70    5.9    0.0    5.9   0.00   3.82    6.9    5.4    0.5    3.8   3.82   1.18    0.00    0.10
 1992 258    74    71    6.2    0.0    6.2   0.00   3.76    7.8    5.7    0.5    3.8   3.76   1.23    0.00    0.11
 1992 259    75    72    6.7    0.0    6.7   0.00   3.65    8.7    6.2    0.5    3.7   3.65   1.23    0.00    0.12
 1992 260    76    73    7.3    0.0    7.3   0.00   3.56    9.4    6.8    0.5    3.6   3.56   1.15    0.00    0.14
 1992 261    77    74    8.1    0.0    8.1   0.00   3.40   10.5    7.7    0.5    3.4   3.40   1.15    0.00    0.16
 1992 262    78    75    9.5    0.0    9.5   0.00   3.73   12.7    8.9    0.5    3.7   3.73   1.26    0.00    0.17
 1992 263    79    76   10.0    0.0   10.0   0.00   3.72   13.9    9.5    0.5    3.7   3.72   1.24    0.00    0.20
 1992 264    80    77   10.5    0.0   10.5   0.00   3.55   15.0   10.0    0.5    3.5   3.55   1.20    0.00    0.22
 1992 265    81    78   11.6    0.0   11.6   0.00   3.57   16.8   11.1    0.5    3.6   3.57   1.19    0.00    0.25
 1992 266    82    79   12.6    0.0   12.6   0.00   3.78   17.4   12.1    0.5    3.8   3.78   1.11    0.00    0.28
 1992 267    83    80   12.7    0.0   12.7   0.00   3.60   18.5   12.2    0.5    3.6   3.60   1.17    0.00    0.31
 1992 268    84    81   14.4    0.0   14.4   0.00   3.90   19.8   13.8    0.5    3.9   3.90   1.10    0.00    0.35
 1992 269    85    82   14.0    0.0   14.0   0.00   3.75   21.1   13.5    0.5    3.7   3.75   1.31    0.00    0.38
 1992 270    86    83   14.0    0.0   14.0   0.00   3.67   21.3   13.5    0.5    3.7   3.67   1.28    0.00    0.42
 1992 271    87    84   14.5    0.0   14.5   0.00   3.58   21.8   14.0    0.5    3.6   3.58   1.16    0.00    0.46
 1992 272    88    85   15.4    0.0   15.4   0.00   3.55   23.4   14.9    0.5    3.6   3.55   1.16    0.00    0.51
 1992 273    89    86   16.6    0.0   16.6   0.00   3.53   25.4   16.1    0.5    3.5   3.53   1.16    0.00    0.55
 1992 274    90    87   18.4    0.0   18.4   0.00   3.49   27.8   17.8    0.5    3.5   3.49   1.14    0.00    0.60
 1992 275    91    88   20.2    0.0   20.2   0.00   3.45   29.4   19.6    0.6    3.5   3.45   1.10    0.00    0.66
 1992 276    92    89   21.8    0.0   21.8   0.00   3.42   31.4   21.2    0.6    3.4   3.42   1.10    0.00    0.71
 1992 277    93    90   23.3    0.0   23.3   0.00   3.39   34.0   22.5    0.7    3.4   3.39   1.14    0.00    0.76
 1992 278    94    91   25.4    0.0   25.4   0.00   3.36   36.6   24.5    0.9    3.4   3.36   1.13    0.00    0.82
 1992 279    95    92   26.8    0.0   26.8   0.00   3.34   37.7   25.8    1.0    3.3   3.34   1.08    0.00    0.88
 1992 280    96    93   28.0    0.0   28.0   0.00   3.37   41.4   27.0    1.1    3.4   3.37   1.21    0.00    0.94
 1992 281    97    94   28.9    0.0   28.9   0.00   3.37   42.9   27.7    1.1    3.4   3.37   1.20    0.00    1.01
 1992 282    98    95   29.7    0.0   29.7   0.00   3.32   44.8   28.4    1.2    3.3   3.32   1.18    0.00    1.09
 1992 283    99    96   31.1    0.0   31.1   0.00   3.29   47.1   29.7    1.4    3.3   3.29   1.15    0.00    1.17
 1992 284   100    97   33.3    0.0   33.3   0.00   3.26   50.5   31.6    1.7    3.3   3.26   1.15    0.00    1.26
 1992 285   101    98   36.1    0.0   36.1   0.00   3.23   53.2   33.9    2.1    3.2   3.23   1.11    0.00    1.35
 1992 286   102    99   38.9    0.0   38.9   0.00   3.20   57.6   36.3    2.6    3.2   3.20   1.13    0.00    1.44
 1992 287   103   100   41.5    0.0   41.5   0.00   3.17   61.8   38.3    3.1    3.2   3.17   1.14    0.00    1.54
 1992 288   104   101   45.2    0.0   45.2   0.00   3.14   66.4   41.2    4.0    3.1   3.14   1.13    0.00    1.65
 1992 289   105   102   47.7    0.0   47.7   0.00   3.09   67.7   43.0    4.7    3.1   3.09   1.07    0.00    1.76
 1992 290   106   103   50.9    0.0   50.9   0.00   3.06   71.0   45.2    5.7    3.1   3.06   1.07    0.00    1.86
 1992 291   107   104   53.7    0.0   53.7   0.00   3.03   76.5   47.1    6.5    3.0   3.03   1.14    0.00    1.97
 1992 292   108   105   55.8    0.0   55.8   0.00   3.02   80.7   48.5    7.2    3.0   3.02   1.15    0.00    2.09
 1992 293   109   106   58.3    0.0   58.3   0.00   2.99   81.8   50.2    8.1    3.0   2.99   1.08    0.00    2.22
 1992 294   110   107   60.5    0.0   60.5   0.00   2.98   87.1   51.6    8.9    3.0   2.98   1.14    0.00    2.34
 1992 295   111   108   62.5    0.0   62.5   0.00   2.96   91.1   52.8    9.7    3.0   2.96   1.14    0.00    2.48
 1992 296   112   109   65.4    0.0   65.4   0.00   2.94   95.3   54.6   10.9    2.9   2.94   1.13    0.00    2.63
 1992 297   113   110   69.8    0.0   69.8   0.00   2.91  100.6   57.1   12.7    2.9   2.91   1.12    0.00    2.78
 1992 298   114   111   75.6    0.0   75.6   0.00   2.87  107.0   60.2   15.4    2.9   2.87   1.10    0.00    2.94
 1992 299   115   112   78.9    0.0   78.9   0.00   2.83  109.2   61.8   17.1    2.8   2.83   1.07    0.00    3.10
 1992 300   116   113   84.8    0.0   84.8   0.00   2.79  117.5   64.6   20.1    2.8   2.79   1.11    0.00    3.26
 1992 301   117   114   96.2    0.0   96.2   0.00   2.76  128.0   75.2   21.0    2.8   2.76   1.07    0.00    3.43
 1992 302   118   115  100.5    0.0  100.5   0.00   2.79  132.1   78.2   22.3    2.8   2.79   1.07    0.00    3.59
 1992 303   119   116  102.3    0.0  102.3   0.00   2.75  137.7   78.9   23.4    2.8   2.75   1.15    0.00    3.75
 1992 304   120   117  104.6    0.0  104.6   0.00   2.73  141.4   79.9   24.7    2.7   2.73   1.14    0.00    3.93
 1992 305   121   118  106.8    0.0  106.8   0.00   2.71  144.8   80.6   26.2    2.7   2.71   1.13    0.00    4.12
 1992 306   122   119  108.8    0.0  108.8   0.00   2.68  147.4   80.9   27.8    2.7   2.68   1.12    0.00    4.32
 1992 307   123   120  110.5    0.0  110.5   0.00   2.63  149.5   80.9   29.6    2.6   2.63   1.11    0.00    4.51
 1992 308   124   121  111.7    0.0  111.7   0.00   2.61  151.5   81.0   30.7    2.6   2.61   1.10    0.00    4.71
 1992 309   125   122  112.4    0.0  112.4   0.00   2.59  153.1   80.9   31.5    2.6   2.59   1.10    0.00    4.92
 1992 310   126   123  113.1    0.0  113.1   0.00   2.57  154.4   80.7   32.4    2.6   2.57   1.08    0.00    5.12
 1992 311   127   124  113.6    0.0  113.6   0.00   2.53  155.4   80.2   33.4    2.5   2.53   1.05    0.00    5.33
 1992 312   128   125  114.0    0.0  114.0   0.00   2.50  156.3   79.9   34.2    2.5   2.50   1.03    0.00    5.55
 1992 313   129   126  114.3    0.0  114.3   0.00   2.47  156.8   79.4   34.9    2.5   2.47   1.02    0.00    5.76
 1992 314   130   127  114.6    0.0  114.6   0.00   2.44  157.3   78.9   35.7    2.4   2.44   1.01    0.00    5.98
 1992 315   131   128  114.9    0.0  114.9   0.00   2.37  157.7   77.7   37.2    2.4   2.37   1.02    0.00    6.19
 1992 316   132   129  115.2    0.0  115.2   0.00   2.34  158.2   77.2   38.0    2.3   2.34   1.02    0.00    6.41
 1992 317   133   130  115.5    0.0  115.5   0.00   2.31  158.6   76.7   38.7    2.3   2.31   1.01    0.00    6.63
 1992 318   134   131  115.6    0.0  115.6   0.00   2.29  158.9   76.3   39.3    2.3   2.29   1.01    0.00    6.85
 1992 319   135   132  116.0    0.0  116.0   0.00   2.26  159.5   75.7   40.3    2.3   2.26   1.01    0.00    7.06
 1992 320   136   133  116.7    0.0  116.7   0.00   2.23  160.4   75.3   41.4    2.2   2.23   1.01    0.00    7.28
 1992 321   137   134  117.2    0.0  117.2   0.00   2.17  161.3   74.2   43.0    2.2   2.17   0.98    0.00    7.51
 1992 322   138   135  117.8    0.0  117.8   0.00   2.13  162.3   73.4   44.3    2.1   2.13   0.96    0.00    7.73
 1992 323   139   136  118.3    0.0  118.3   0.00   2.08  163.2   72.5   45.8    2.1   2.08   0.94    0.00    7.95
 1992 324   140   137  118.8    0.0  118.8   0.00   2.00  164.0   71.1   47.7    2.0   2.00   0.92    0.00    8.18
 1992 325   141   138  119.3    0.0  119.3   0.00   1.92  164.7   69.5   49.8    1.9   1.92   0.92    0.00    8.41
 1992 326   142   139  119.7    0.0  119.7   0.00   2.07  165.3   74.1   45.6    2.1   2.07   0.92    0.00    8.64
 1992 327   143   140  120.0    0.0  120.0   0.00   2.08  165.9   73.7   46.3    2.1   2.08   0.91    0.00    8.87
 1992 328   144   141  120.2    0.0  120.2   0.00   2.09  166.3   73.2   46.9    2.1   2.09   0.89    0.00    9.10
 1992 329   145   142  120.3    0.0  120.3   0.00   2.09  166.7   72.7   47.6    2.1   2.09   0.89    0.00    9.33
 1992 330   146   143  120.4    0.0  120.4   0.00   2.10  167.1   72.0   48.4    2.1   2.10   0.88    0.00    9.57
 1992 331   147   144  120.4    0.0  120.4   0.00   2.11  167.3   71.3   49.1    2.1   2.11   0.88    0.00    9.80
 1992 332   148   145  120.4    0.0  120.4   0.00   2.12  167.6   70.7   49.7    2.1   2.12   0.88    0.00   10.04
 1992 333   149   146  120.4    0.0  120.4   0.00   2.13  167.8   70.0   50.4    2.1   2.13   0.89    0.00   10.27
 1992 334   150   147  120.3    0.0  120.3   0.00   2.14  168.0   69.2   51.1    2.1   2.14   0.89    0.00   10.51
 1992 335   151   148  119.5    0.0  119.5   0.00   2.14  168.5   68.0   51.5    2.1   2.14   0.91    0.00   10.75
 1992 336   152   149  118.9    0.0  118.9   0.00   2.13  168.8   66.3   52.6    2.1   2.13   0.91    0.00   11.00
 1992 337   153   150  117.0    0.0  117.0   0.00   2.10  169.4   64.1   52.9    2.1   2.10   0.93    0.00   11.25
 1992 338   154   151  113.8    0.0  113.8   0.00   2.04  170.0   61.1   52.7    2.0   2.04   0.99    0.00   11.51
 1992 339   155   152  111.1    0.0  111.1   0.00   1.99  170.6   58.3   52.9    2.0   1.99   1.03    0.00   11.79
 1992 340   156   153  111.1    0.0  111.1   0.00   1.99  170.6   56.9   54.2    2.0   1.99   1.03    0.00   11.79
 1992 341   157   154  108.8    2.8  106.0   1.82   1.90  171.2   54.3   51.7    1.9   1.90   1.07    0.00   12.09
 1992 342   158   155  109.4    5.7  103.7   1.76   1.86  172.0   53.1   50.6    1.9   1.86   1.07    0.00   12.40
 1992 343   159   156  110.0    8.7  101.4   1.74   1.81  172.8   51.9   49.5    1.8   1.81   1.07    0.00   12.71
 1992 344   160   157  110.6   11.7   98.9   1.73   1.77  173.5   50.6   48.3    1.8   1.77   1.07    0.00   13.03
 1992 345   161   158  111.2   15.0   96.2   1.72   1.72  174.2   49.3   47.0    1.7   1.72   1.06    0.00   13.34
 1992 346   162   159  111.7   17.9   93.8   1.72   1.68  174.8   48.0   45.8    1.7   1.68   1.06    0.00   13.65
 1992 347   163   160  112.0   20.3   91.7   1.73   1.64  175.2   46.9   44.8    1.6   1.64   1.06    0.00   13.97
 1992 348   164   161  112.4   22.9   89.5   1.74   1.60  175.7   45.8   43.7    1.6   1.60   1.06    0.00   14.28
 1992 349   165   162  112.7   25.2   87.5   1.75   1.56  176.1   44.8   42.7    1.6   1.56   1.06    0.00   14.60
 1992 350   166   163  113.0   27.0   86.0   1.76   1.54  176.4   44.0   42.0    1.5   1.54   1.06    0.00   14.92
 1992 351   167   164  113.3   29.1   84.2   1.76   1.51  176.8   43.1   41.1    1.5   1.51   1.07    0.00   15.23
 1992 352   168   165  113.6   31.7   81.9   1.77   1.46  177.1   41.9   40.0    1.5   1.46   1.07    0.00   15.55
 1992 353   169   166  113.9   33.8   80.1   1.77   1.43  177.4   41.0   39.1    1.4   1.43   1.07    0.00   15.86
 1992 354   170   167  114.1   36.3   77.8   1.77   1.39  177.6   39.8   38.0    1.4   1.39   1.08    0.00   16.18
 1992 355   171   168  114.3   38.3   76.1   1.78   1.36  177.8   39.0   37.1    1.4   1.36   1.08    0.00   16.49
 1992 356   172   169  114.5   40.3   74.2   1.78   1.33  178.0   38.1   36.1    1.3   1.33   1.09    0.00   16.81
 1992 357   173   170  114.8   42.9   71.9   1.77   1.30  178.2   37.3   34.6    1.3   1.30   1.09    0.00   17.13
 1992 358   174   171  114.9   45.3   69.6   1.77   1.27  178.4   36.5   33.1    1.3   1.27   1.10    0.00   17.44
 1992 359   175   172  115.7   47.3   68.4   1.77   1.25  179.0   35.9   32.5    1.3   1.25   1.10    0.00   17.76
 1992 360   176   173  115.9   50.1   65.8   1.76   1.19  179.2   34.1   31.7    1.2   1.19   1.10    0.00   18.07
 1992 361   177   174  116.3   52.6   63.8   1.75   1.14  179.6   32.6   31.1    1.1   1.14   1.09    0.00   18.38
 1992 362   178   175  116.7   55.0   61.7   1.74   1.10  180.0   31.6   30.1    1.1   1.10   1.08    0.00   18.70
 1992 363   179   176  116.9   57.9   59.0   1.73   1.06  180.2   30.2   28.8    1.1   1.06   1.08    0.00   19.01
 1992 364   180   177  117.2   60.7   56.5   1.71   1.02  180.5   29.3   27.2    1.0   1.02   1.08    0.00   19.32
 1992 365   181   178  117.6   63.0   54.6   1.70   1.00  180.9   28.6   26.0    1.0   1.00   1.09    0.00   19.64
 1992 366   182   179  118.4   65.0   53.4   1.68   0.98  181.7   28.2   25.3    1.0   0.98   1.09    0.00   19.95
 1993 001   183   180  119.7   67.1   52.6   1.67   0.98  182.8   28.0   24.6    1.0   0.98   1.09    0.00   20.26
 1993 002   184   181  121.0   69.3   51.7   1.66   0.97  183.9   27.8   23.9    1.0   0.97   1.09    0.00   20.57
 1993 003   185   182  122.2   71.6   50.7   1.64   0.96  185.0   27.5   23.2    1.0   0.96   1.10    0.00   20.88
 1993 004   186   183  123.4   74.2   49.3   1.63   0.94  186.0   26.8   22.5    0.9   0.94   1.10    0.00   21.19
 1993 005   187   184  125.1   76.9   48.2   1.62   0.91  187.5   26.0   22.2    0.9   0.91   1.10    0.00   21.50
 1993 006   188   185  126.5   79.5   47.0   1.61   0.87  188.9   25.0   22.1    0.9   0.87   1.09    0.00   21.81
 1993 007   189   186  127.9   82.1   45.8   1.60   0.86  190.1   24.5   21.3    0.9   0.86   1.09    0.00   22.12
 1993 008   190   187  128.7   84.5   44.2   1.59   0.82  190.9   23.6   20.6    0.8   0.82   1.10    0.00   22.42
 1993 009   191   188  129.5   86.7   42.8   1.58   0.79  191.6   22.5   20.3    0.8   0.79   1.09    0.00   22.73
 1993 010   192   189  130.4   89.1   41.4   1.57   0.75  192.5   21.4   19.9    0.7   0.75   1.09    0.00   23.03
 1993 011   193   190  131.4   91.3   40.2   1.55   0.72  193.5   20.6   19.6    0.7   0.72   1.09    0.00   23.34
 1993 012   194   191  131.4   91.3   40.2   1.55   0.72  194.4   20.6   19.6    0.7   0.72   1.09    0.00   23.34
 1993 013   195   192  131.4   91.3   40.2   1.55   0.72  195.4   20.6   19.6    0.7   0.72   1.09    0.00   23.34
 1993 014   196   193  131.4   91.3   40.2   1.55   0.72  196.4   20.6   19.6    0.7   0.72   1.09    0.00   23.34

*DSSAT Cropping System Model Ver. 4.0.2.000               Jul 19, 2016; 16:44:49

*RUN   4        : UYMZ                    
 MODEL          : MZCER040 - Maize           
 EXPERIMENT     : UYMZ0040 MZ    late to create DSS                             
 TREATMENT  1   : UYMZ                    

@YEAR DOY   DAS   DAP   CNAD   GNAD   VNAD   GN%D   VN%D   NUPC   LNAD   SNAD   LN%D   SN%D   RN%D   SNN0C   SNN1C
 1993 187     3     0    0.0    0.0    0.0   0.00   0.00    0.0    0.0    0.0    0.0   0.00   0.00    0.00    0.00
 1993 188     4     1    0.0    0.0    0.0   0.00   0.00    0.0    0.0    0.0    0.0   0.00   0.00    0.00    0.00
 1993 189     5     2    0.0    0.0    0.0   0.00   0.00    0.0    0.0    0.0    0.0   0.00   0.00    0.00    0.00
 1993 190     6     3    0.0    0.0    0.0   0.00   0.00    0.0    0.0    0.0    0.0   0.00   0.00    0.00    0.00
 1993 191     7     4    0.0    0.0    0.0   0.00   0.00    0.0    0.0    0.0    0.0   0.00   0.00    0.00    0.00
 1993 192     8     5    0.0    0.0    0.0   0.00   0.00    0.0    0.0    0.0    0.0   0.00   0.00    0.00    0.00
 1993 193     9     6    0.0    0.0    0.0   0.00   0.00    0.0    0.0    0.0    0.0   0.00   0.00    0.00    0.00
 1993 194    10     7    0.0    0.0    0.0   0.00   0.00    0.0    0.0    0.0    0.0   0.00   0.00    0.00    0.00
 1993 195    11     8    0.0    0.0    0.0   0.00   0.00    0.0    0.0    0.0    0.0   0.00   0.00    0.00    0.00
 1993 196    12     9    0.0    0.0    0.0   0.00   0.00    0.0    0.0    0.0    0.0   0.00   0.00    0.00    0.00
 1993 197    13    10    0.0    0.0    0.0   0.00   0.00    0.0    0.0    0.0    0.0   0.00   0.00    0.00    0.00
 1993 198    14    11    0.0    0.0    0.0   0.00   0.00    0.0    0.0    0.0    0.0   0.00   0.00    0.00    0.00
 1993 199    15    12    0.0    0.0    0.0   0.00   0.00    0.0    0.0    0.0    0.0   0.00   0.00    0.00    0.00
 1993 200    16    13    0.0    0.0    0.0   0.00   0.00    0.0    0.0    0.0    0.0   0.00   0.00    0.00    0.00
 1993 201    17    14    0.0    0.0    0.0   0.00   0.00    0.0    0.0    0.0    0.0   0.00   0.00    0.00    0.00
 1993 202    18    15    0.0    0.0    0.0   0.00   0.00    0.0    0.0    0.0    0.0   0.00   0.00    0.00    0.00
 1993 203    19    16    0.0    0.0    0.0   0.00   0.00    0.0    0.0    0.0    0.0   0.00   0.00    0.00    0.00
 1993 204    20    17    1.2    0.0    1.2   0.00   4.40    0.0    0.6    0.6    4.4   4.40   0.00    0.00    0.00
 1993 205    21    18    1.3    0.0    1.3   0.00   4.56    0.2    0.6    0.6    4.6   4.56   1.10    0.00    0.00
 1993 206    22    19    1.3    0.0    1.3   0.00   4.56    0.2    0.6    0.6    4.6   4.56   1.10    0.00    0.00
 1993 207    23    20    1.3    0.0    1.3   0.00   4.56    0.2    0.6    0.6    4.6   4.56   1.11    0.00    0.00
 1993 208    24    21    1.3    0.0    1.3   0.00   4.56    0.2    0.6    0.6    4.6   4.56   1.11    0.00    0.00
 1993 209    25    22    1.3    0.0    1.3   0.00   4.56    0.2    0.6    0.6    4.6   4.56   1.11    0.00    0.00
 1993 210    26    23    1.3    0.0    1.3   0.00   4.56    0.2    0.6    0.6    4.6   4.56   1.11    0.00    0.00
 1993 211    27    24    1.3    0.0    1.3   0.00   4.56    0.2    0.6    0.6    4.6   4.56   1.11    0.00    0.00
 1993 212    28    25    1.3    0.0    1.3   0.00   4.56    0.2    0.6    0.6    4.6   4.56   1.12    0.00    0.00
 1993 213    29    26    1.3    0.0    1.3   0.00   4.56    0.2    0.6    0.6    4.6   4.56   1.11    0.00    0.00
 1993 214    30    27    1.3    0.0    1.3   0.00   4.56    0.2    0.6    0.6    4.6   4.56   1.10    0.00    0.00
 1993 215    31    28    1.3    0.0    1.3   0.00   4.56    0.2    0.6    0.6    4.6   4.56   1.10    0.00    0.00
 1993 216    32    29    1.3    0.0    1.3   0.00   4.56    0.2    0.6    0.6    4.6   4.56   1.09    0.00    0.00
 1993 217    33    30    1.3    0.0    1.3   0.00   4.56    0.2    0.6    0.6    4.6   4.56   1.08    0.00    0.00
 1993 218    34    31    1.3    0.0    1.3   0.00   4.56    0.2    0.6    0.6    4.6   4.56   1.04    0.00    0.00
 1993 219    35    32    1.3    0.0    1.3   0.00   4.56    0.2    0.6    0.6    4.6   4.56   0.97    0.00    0.00
 1993 220    36    33    1.3    0.0    1.3   0.00   4.56    0.2    0.6    0.6    4.6   4.56   0.96    0.00    0.00
 1993 221    37    34    1.2    0.0    1.2   0.00   4.41    0.2    0.6    0.6    4.4   4.41   1.29    0.00    0.00
 1993 222    38    35    1.2    0.0    1.2   0.00   4.41    0.2    0.6    0.6    4.4   4.41   1.25    0.00    0.00
 1993 223    39    36    1.2    0.0    1.2   0.00   4.41    0.2    0.6    0.6    4.4   4.41   1.20    0.00    0.00
 1993 224    40    37    1.2    0.0    1.2   0.00   4.41    0.2    0.6    0.6    4.4   4.41   1.17    0.00    0.00
 1993 225    41    38    1.2    0.0    1.2   0.00   4.37    0.2    0.6    0.6    4.4   4.37   1.14    0.00    0.00
 1993 226    42    39    1.2    0.0    1.2   0.00   4.36    0.2    0.6    0.6    4.4   4.36   1.15    0.00    0.00
 1993 227    43    40    1.2    0.0    1.2   0.00   4.18    0.3    0.6    0.6    4.2   4.18   1.20    0.00    0.00
 1993 228    44    41    1.3    0.0    1.3   0.00   3.85    0.3    0.7    0.5    3.9   3.85   1.15    0.00    0.01
 1993 229    45    42    1.4    0.0    1.4   0.00   4.26    0.6    0.8    0.6    4.3   4.26   1.39    0.00    0.01
 1993 230    46    43    1.4    0.0    1.4   0.00   4.18    0.6    0.8    0.6    4.2   4.18   1.35    0.00    0.01
 1993 231    47    44    1.5    0.0    1.5   0.00   4.07    0.6    0.9    0.6    4.1   4.07   1.19    0.00    0.01
 1993 232    48    45    1.5    0.0    1.5   0.00   4.05    0.7    1.0    0.6    4.0   4.05   1.16    0.00    0.01
 1993 233    49    46    1.6    0.0    1.6   0.00   4.06    0.8    1.1    0.6    4.1   4.06   1.15    0.00    0.01
 1993 234    50    47    1.7    0.0    1.7   0.00   3.89    0.9    1.2    0.5    3.9   3.89   1.09    0.00    0.02
 1993 235    51    48    1.9    0.0    1.9   0.00   3.92    1.1    1.3    0.5    3.9   3.92   1.11    0.00    0.02
 1993 236    52    49    2.0    0.0    2.0   0.00   3.77    1.3    1.5    0.5    3.8   3.77   1.17    0.00    0.02
 1993 237    53    50    2.3    0.0    2.3   0.00   3.65    1.6    1.8    0.5    3.6   3.65   1.16    0.00    0.02
 1993 238    54    51    2.6    0.0    2.6   0.00   3.55    2.0    2.1    0.5    3.5   3.55   1.16    0.00    0.03
 1993 239    55    52    3.1    0.0    3.1   0.00   3.41    2.5    2.6    0.5    3.4   3.41   1.16    0.00    0.03
 1993 240    56    53    3.7    0.0    3.7   0.00   3.23    3.2    3.3    0.5    3.2   3.23   1.13    0.00    0.03
 1993 241    57    54    4.7    0.0    4.7   0.00   3.64    4.2    4.2    0.5    3.6   3.64   1.10    0.00    0.04
 1993 242    58    55    5.3    0.0    5.3   0.00   3.75    4.8    4.8    0.5    3.8   3.75   1.11    0.00    0.04
 1993 243    59    56    5.8    0.0    5.8   0.00   3.94    5.3    5.2    0.6    3.9   3.94   1.18    0.00    0.04
 1993 244    60    57    5.9    0.0    5.9   0.00   3.94    5.6    5.4    0.6    3.9   3.94   1.23    0.00    0.05
 1993 245    61    58    6.1    0.0    6.1   0.00   3.96    6.2    5.6    0.6    4.0   3.96   1.53    0.00    0.05
 1993 246    62    59    6.2    0.0    6.2   0.00   3.89    6.7    5.7    0.5    3.9   3.89   1.49    0.00    0.06
 1993 247    63    60    6.5    0.0    6.5   0.00   3.64    7.1    6.0    0.5    3.6   3.64   1.30    0.00    0.07
 1993 248    64    61    7.1    0.0    7.1   0.00   3.66    8.2    6.6    0.5    3.7   3.66   1.28    0.00    0.08
 1993 249    65    62    7.8    0.0    7.8   0.00   3.64    9.2    7.3    0.5    3.6   3.64   1.24    0.00    0.09
 1993 250    66    63    8.5    0.0    8.5   0.00   3.79   10.4    8.0    0.5    3.8   3.79   1.30    0.00    0.10
 1993 251    67    64    8.9    0.0    8.9   0.00   3.81   11.3    8.4    0.5    3.8   3.81   1.30    0.00    0.11
 1993 252    68    65    9.3    0.0    9.3   0.00   3.74   12.0    8.8    0.5    3.7   3.74   1.24    0.00    0.13
 1993 253    69    66    9.8    0.0    9.8   0.00   3.68   13.0    9.3    0.5    3.7   3.68   1.20    0.00    0.15
 1993 254    70    67   10.5    0.0   10.5   0.00   3.83   14.1   10.0    0.5    3.8   3.83   1.23    0.00    0.17
 1993 255    71    68   10.8    0.0   10.8   0.00   3.74   14.9   10.2    0.5    3.7   3.74   1.21    0.00    0.20
 1993 256    72    69   11.3    0.0   11.3   0.00   3.76   15.0   10.8    0.5    3.8   3.76   1.10    0.00    0.23
 1993 257    73    70   11.7    0.0   11.7   0.00   3.66   15.9   11.2    0.5    3.7   3.66   1.14    0.00    0.25
 1993 258    74    71   12.5    0.0   12.5   0.00   3.81   17.4   11.9    0.5    3.8   3.81   1.17    0.00    0.28
 1993 259    75    72   12.8    0.0   12.8   0.00   3.47   18.3   12.3    0.5    3.5   3.47   1.17    0.00    0.31
 1993 260    76    73   14.1    0.0   14.1   0.00   3.42   20.3   13.6    0.5    3.4   3.42   1.17    0.00    0.34
 1993 261    77    74   17.3    0.0   17.3   0.00   3.78   23.5   16.8    0.5    3.8   3.78   1.11    0.00    0.38
 1993 262    78    75   18.5    0.0   18.5   0.00   3.68   25.5   18.0    0.5    3.7   3.68   1.15    0.00    0.42
 1993 263    79    76   19.2    0.0   19.2   0.00   3.58   27.0   18.7    0.5    3.6   3.58   1.16    0.00    0.46
 1993 264    80    77   19.5    0.0   19.5   0.00   3.61   27.4   18.9    0.5    3.6   3.61   1.16    0.00    0.50
 1993 265    81    78   19.5    0.0   19.5   0.00   3.59   27.4   18.9    0.5    3.6   3.59   1.15    0.00    0.50
 1993 266    82    79   20.4    0.0   20.4   0.00   3.61   28.0   19.9    0.5    3.6   3.61   1.09    0.00    0.55
 1993 267    83    80   21.3    0.0   21.3   0.00   3.55   29.0   20.8    0.5    3.6   3.55   1.09    0.00    0.59
 1993 268    84    81   22.6    0.0   22.6   0.00   3.52   30.5   22.1    0.5    3.5   3.52   1.09    0.00    0.63
 1993 269    85    82   23.8    0.0   23.8   0.00   3.55   32.1   23.2    0.6    3.5   3.55   1.12    0.00    0.68
 1993 270    86    83   25.0    0.0   25.0   0.00   3.48   34.6   24.4    0.6    3.5   3.48   1.16    0.00    0.73
 1993 271    87    84   26.5    0.0   26.5   0.00   3.46   37.4   25.8    0.7    3.5   3.46   1.18    0.00    0.78
 1993 272    88    85   27.9    0.0   27.9   0.00   3.44   39.2   27.2    0.7    3.4   3.44   1.14    0.00    0.84
 1993 273    89    86   30.3    0.0   30.3   0.00   3.41   41.0   29.5    0.9    3.4   3.41   1.08    0.00    0.90
 1993 274    90    87   33.3    0.0   33.3   0.00   3.38   44.1   32.2    1.1    3.4   3.38   1.08    0.00    0.96
 1993 275    91    88   35.8    0.0   35.8   0.00   3.35   46.5   34.4    1.4    3.3   3.35   1.07    0.00    1.02
 1993 276    92    89   38.1    0.0   38.1   0.00   3.32   49.6   36.4    1.6    3.3   3.32   1.11    0.00    1.08
 1993 277    93    90   40.3    0.0   40.3   0.00   3.30   51.6   38.4    1.9    3.3   3.30   1.08    0.00    1.14
 1993 278    94    91   42.0    0.0   42.0   0.00   3.29   56.2   39.8    2.2    3.3   3.29   1.20    0.00    1.21
 1993 279    95    92   43.3    0.0   43.3   0.00   3.26   59.2   40.9    2.4    3.3   3.26   1.19    0.00    1.28
 1993 280    96    93   45.4    0.0   45.4   0.00   3.24   62.9   42.7    2.8    3.2   3.24   1.17    0.00    1.37
 1993 281    97    94   49.0    0.0   49.0   0.00   3.21   66.7   45.5    3.5    3.2   3.21   1.13    0.00    1.46
 1993 282    98    95   53.0    0.0   53.0   0.00   3.17   71.3   48.6    4.5    3.2   3.17   1.11    0.00    1.56
 1993 283    99    96   58.4    0.0   58.4   0.00   3.13   78.1   52.4    6.0    3.1   3.13   1.13    0.00    1.65
 1993 284   100    97   64.3    0.0   64.3   0.00   3.08   84.8   56.4    7.9    3.1   3.08   1.12    0.00    1.76
 1993 285   101    98   67.1    0.0   67.1   0.00   3.04   86.6   58.1    8.9    3.0   3.04   1.07    0.00    1.86
 1993 286   102    99   70.1    0.0   70.1   0.00   3.02   89.6   60.0   10.1    3.0   3.02   1.07    0.00    1.97
 1993 287   103   100   73.8    0.0   73.8   0.00   2.99   93.3   62.2   11.6    3.0   2.99   1.07    0.00    2.07
 1993 288   104   101   78.2    0.0   78.2   0.00   2.96   99.3   64.7   13.5    3.0   2.96   1.11    0.00    2.17
 1993 289   105   102   84.4    0.0   84.4   0.00   2.92  106.9   68.0   16.4    2.9   2.92   1.12    0.00    2.28
 1993 290   106   103   88.0    0.0   88.0   0.00   2.89  109.3   69.8   18.2    2.9   2.89   1.07    0.00    2.40
 1993 291   107   104   90.9    0.0   90.9   0.00   2.87  114.5   71.2   19.7    2.9   2.87   1.12    0.00    2.51
 1993 292   108   105   95.1    0.0   95.1   0.00   2.85  119.2   73.2   21.9    2.8   2.85   1.11    0.00    2.63
 1993 293   109   106  100.9    0.0  100.9   0.00   2.81  124.8   75.9   25.0    2.8   2.81   1.08    0.00    2.76
 1993 294   110   107  107.7    0.0  107.7   0.00   2.78  131.7   78.8   28.9    2.8   2.78   1.08    0.00    2.88
 1993 295   111   108  110.6    0.0  110.6   0.00   2.76  134.3   79.9   30.7    2.8   2.76   1.07    0.00    3.01
 1993 296   112   109  113.7    0.0  113.7   0.00   2.75  137.4   81.2   32.4    2.8   2.75   1.07    0.00    3.13
 1993 297   113   110  116.5    0.0  116.5   0.00   2.73  140.2   83.4   33.1    2.7   2.73   1.07    0.00    3.26
 1993 298   114   111  121.9    0.0  121.9   0.00   2.71  145.6   86.4   35.5    2.7   2.71   1.07    0.00    3.38
 1993 299   115   112  124.1    0.0  124.1   0.00   2.66  149.9   87.1   37.0    2.7   2.66   1.08    0.00    3.50
 1993 300   116   113  126.5    0.0  126.5   0.00   2.59  153.1   87.4   39.1    2.6   2.59   1.06    0.00    3.63
[...]
 1995 201    17    14    1.2    0.0    1.2   0.00   4.40    0.0    0.6    0.6    4.4   4.40   0.00    0.00    0.00
 1995 202    18    15    1.3    0.0    1.3   0.00   4.57    0.2    0.6    0.6    4.6   4.57   1.07    0.00    0.00
 1995 203    19    16    1.3    0.0    1.3   0.00   4.57    0.2    0.6    0.6    4.6   4.57   1.08    0.00    0.00
 1995 204    20    17    1.3    0.0    1.3   0.00   4.57    0.2    0.6    0.6    4.6   4.57   1.08    0.00    0.00
 1995 205    21    18    1.3    0.0    1.3   0.00   4.57    0.2    0.6    0.6    4.6   4.57   1.07    0.00    0.00
 1995 206    22    19    1.3    0.0    1.3   0.00   4.57    0.2    0.6    0.6    4.6   4.57   1.04    0.00    0.00
 1995 207    23    20    1.3    0.0    1.3   0.00   4.57    0.2    0.6    0.6    4.6   4.57   1.00    0.00    0.00
 1995 208    24    21    1.3    0.0    1.3   0.00   4.57    0.2    0.6    0.6    4.6   4.57   0.98    0.00    0.00
 1995 209    25    22    1.3    0.0    1.3   0.00   4.57    0.2    0.6    0.6    4.6   4.57   0.91    0.00    0.00
 1995 210    26    23    1.2    0.0    1.2   0.00   4.41    0.2    0.6    0.6    4.4   4.41   1.16    0.00    0.00
 1995 211    27    24    1.2    0.0    1.2   0.00   4.40    0.2    0.6    0.6    4.4   4.40   1.23    0.00    0.00
 1995 212    28    25    1.2    0.0    1.2   0.00   4.40    0.2    0.6    0.6    4.4   4.40   1.22    0.00    0.00
 1995 213    29    26    1.2    0.0    1.2   0.00   4.40    0.2    0.6    0.6    4.4   4.40   1.19    0.00    0.00
 1995 214    30    27    1.2    0.0    1.2   0.00   4.40    0.2    0.6    0.6    4.4   4.40   1.17    0.00    0.00
 1995 215    31    28    1.2    0.0    1.2   0.00   4.38    0.3    0.6    0.6    4.4   4.38   1.27    0.00    0.00
 1995 216    32    29    1.2    0.0    1.2   0.00   4.38    0.3    0.6    0.6    4.4   4.38   1.27    0.00    0.00
 1995 217    33    30    1.2    0.0    1.2   0.00   4.38    0.3    0.6    0.6    4.4   4.38   1.24    0.00    0.00
 1995 218    34    31    1.2    0.0    1.2   0.00   4.38    0.3    0.6    0.6    4.4   4.38   1.22    0.00    0.00
 1995 219    35    32    1.2    0.0    1.2   0.00   4.38    0.3    0.6    0.6    4.4   4.38   1.21    0.00    0.00
 1995 220    36    33    1.2    0.0    1.2   0.00   4.38    0.3    0.6    0.6    4.4   4.38   1.18    0.00    0.00
 1995 221    37    34    1.2    0.0    1.2   0.00   4.38    0.3    0.6    0.6    4.4   4.38   1.18    0.00    0.00
 1995 222    38    35    1.2    0.0    1.2   0.00   4.38    0.3    0.6    0.6    4.4   4.38   1.16    0.00    0.00
 1995 223    39    36    1.2    0.0    1.2   0.00   4.38    0.3    0.6    0.6    4.4   4.38   1.17    0.00    0.00
 1995 224    40    37    1.2    0.0    1.2   0.00   4.30    0.3    0.6    0.6    4.3   4.30   1.15    0.00    0.00
 1995 225    41    38    1.2    0.0    1.2   0.00   3.57    0.3    0.7    0.5    3.6   3.57   1.15    0.00    0.00
 1995 226    42    39    1.5    0.0    1.5   0.00   3.69    0.5    1.0    0.5    3.7   3.69   1.08    0.00    0.00
 1995 227    43    40    1.7    0.0    1.7   0.00   4.18    0.8    1.1    0.6    4.2   4.18   1.35    0.00    0.01
 1995 228    44    41    1.7    0.0    1.7   0.00   4.25    0.9    1.1    0.6    4.2   4.25   1.44    0.00    0.01
 1995 229    45    42    1.7    0.0    1.7   0.00   4.25    0.9    1.1    0.6    4.2   4.25   1.43    0.00    0.01
 1995 230    46    43    1.7    0.0    1.7   0.00   4.20    0.9    1.2    0.6    4.2   4.20   1.39    0.00    0.01
 1995 231    47    44    1.7    0.0    1.7   0.00   4.14    0.9    1.2    0.6    4.1   4.14   1.36    0.00    0.01
 1995 232    48    45    1.7    0.0    1.7   0.00   4.04    0.9    1.2    0.6    4.0   4.04   1.35    0.00    0.01
 1995 233    49    46    1.8    0.0    1.8   0.00   3.99    0.9    1.3    0.6    4.0   3.99   1.07    0.00    0.01
 1995 234    50    47    1.9    0.0    1.9   0.00   3.75    1.0    1.4    0.5    3.7   3.75   1.08    0.00    0.01
 1995 235    51    48    2.2    0.0    2.2   0.00   3.77    1.3    1.7    0.5    3.8   3.77   1.10    0.00    0.01
 1995 236    52    49    2.4    0.0    2.4   0.00   3.59    1.5    1.9    0.5    3.6   3.59   1.12    0.00    0.01
 1995 237    53    50    2.8    0.0    2.8   0.00   3.70    1.9    2.2    0.5    3.7   3.70   1.11    0.00    0.02
 1995 238    54    51    3.0    0.0    3.0   0.00   3.48    2.2    2.6    0.5    3.5   3.48   1.13    0.00    0.02
 1995 239    55    52    3.5    0.0    3.5   0.00   3.38    2.7    3.1    0.5    3.4   3.38   1.15    0.00    0.02
 1995 240    56    53    4.2    0.0    4.2   0.00   3.54    3.4    3.7    0.5    3.5   3.54   1.13    0.00    0.02
 1995 241    57    54    4.8    0.0    4.8   0.00   3.59    4.0    4.3    0.5    3.6   3.59   1.13    0.00    0.02
 1995 242    58    55    5.3    0.0    5.3   0.00   3.29    4.8    4.8    0.5    3.3   3.29   1.35    0.00    0.03
 1995 243    59    56    6.4    0.0    6.4   0.00   3.45    6.0    5.9    0.5    3.5   3.45   1.24    0.00    0.03
 1995 244    60    57    7.3    0.0    7.3   0.00   3.65    7.2    6.8    0.5    3.7   3.65   1.32    0.00    0.03
 1995 245    61    58    7.9    0.0    7.9   0.00   3.83    8.4    7.3    0.5    3.8   3.83   1.62    0.00    0.04
 1995 246    62    59    8.1    0.0    8.1   0.00   3.78    8.8    7.6    0.5    3.8   3.78   1.41    0.00    0.05
 1995 247    63    60    8.4    0.0    8.4   0.00   3.57    9.0    7.9    0.5    3.6   3.57   1.19    0.00    0.06
 1995 248    64    61    9.1    0.0    9.1   0.00   3.44   10.1    8.7    0.5    3.4   3.44   1.20    0.00    0.07
 1995 249    65    62   10.3    0.0   10.3   0.00   3.18   11.5    9.9    0.4    3.2   3.18   1.19    0.00    0.08
 1995 250    66    63   12.4    0.0   12.4   0.00   3.14   13.9   12.0    0.4    3.1   3.14   1.20    0.00    0.09
 1995 251    67    64   16.6    0.0   16.6   0.00   3.78   18.0   16.1    0.5    3.8   3.78   1.10    0.00    0.10
 1995 252    68    65   17.5    0.0   17.5   0.00   3.68   18.9   17.0    0.5    3.7   3.68   1.10    0.00    0.12
 1995 253    69    66   17.7    0.0   17.7   0.00   3.58   19.4   17.2    0.5    3.6   3.58   1.14    0.00    0.13
 1995 254    70    67   18.5    0.0   18.5   0.00   3.56   20.9   18.0    0.5    3.6   3.56   1.23    0.00    0.14
 1995 255    71    68   19.0    0.0   19.0   0.00   3.62   22.9   18.5    0.5    3.6   3.62   1.54    0.00    0.16
 1995 256    72    69   19.0    0.0   19.0   0.00   3.60   22.9   18.5    0.5    3.6   3.60   1.51    0.00    0.16
 1995 257    73    70   19.0    0.0   19.0   0.00   3.52   22.9   18.5    0.5    3.5   3.52   1.46    0.00    0.16
 1995 258    74    71   20.0    0.0   20.0   0.00   3.53   24.2   19.5    0.5    3.5   3.53   1.28    0.00    0.19
 1995 259    75    72   21.2    0.0   21.2   0.00   3.51   26.3   20.6    0.5    3.5   3.51   1.25    0.00    0.22
 1995 260    76    73   23.0    0.0   23.0   0.00   3.48   28.7   22.5    0.6    3.5   3.48   1.19    0.00    0.25
 1995 261    77    74   25.1    0.0   25.1   0.00   3.46   31.8   24.5    0.7    3.5   3.46   1.20    0.00    0.28
 1995 262    78    75   26.2    0.0   26.2   0.00   3.51   33.9   25.5    0.7    3.5   3.51   1.28    0.00    0.32
 1995 263    79    76   26.7    0.0   26.7   0.00   3.52   35.3   26.0    0.7    3.5   3.52   1.31    0.00    0.37
 1995 264    80    77   27.3    0.0   27.3   0.00   3.46   36.0   26.6    0.8    3.5   3.46   1.21    0.00    0.41
 1995 265    81    78   28.4    0.0   28.4   0.00   3.48   36.1   27.5    0.8    3.5   3.48   1.09    0.00    0.46
 1995 266    82    79   29.4    0.0   29.4   0.00   3.42   37.9   28.5    0.9    3.4   3.42   1.13    0.00    0.51
 1995 267    83    80   31.1    0.0   31.1   0.00   3.38   40.6   30.1    1.0    3.4   3.38   1.15    0.00    0.56
 1995 268    84    81   33.2    0.0   33.2   0.00   3.36   43.5   32.0    1.2    3.4   3.36   1.15    0.00    0.61
 1995 269    85    82   35.9    0.0   35.9   0.00   3.33   46.8   34.4    1.5    3.3   3.33   1.13    0.00    0.67
 1995 270    86    83   37.4    0.0   37.4   0.00   3.33   48.3   35.7    1.7    3.3   3.33   1.11    0.00    0.73
 1995 271    87    84   38.6    0.0   38.6   0.00   3.34   49.5   36.8    1.8    3.3   3.34   1.09    0.00    0.79
 1995 272    88    85   40.1    0.0   40.1   0.00   3.35   50.9   38.1    2.0    3.3   3.35   1.08    0.00    0.85
 1995 273    89    86   41.5    0.0   41.5   0.00   3.27   53.8   39.2    2.3    3.3   3.27   1.14    0.00    0.91
 1995 274    90    87   43.4    0.0   43.4   0.00   3.25   56.6   40.8    2.6    3.3   3.25   1.14    0.00    0.98
 1995 275    91    88   45.8    0.0   45.8   0.00   3.23   58.2   42.8    3.1    3.2   3.23   1.07    0.00    1.05
 1995 276    92    89   48.0    0.0   48.0   0.00   3.20   60.5   44.5    3.5    3.2   3.20   1.08    0.00    1.11
 1995 277    93    90   51.1    0.0   51.1   0.00   3.18   64.1   46.8    4.3    3.2   3.18   1.09    0.00    1.18
 1995 278    94    91   53.9    0.0   53.9   0.00   3.15   66.7   48.8    5.0    3.1   3.15   1.08    0.00    1.25
 1995 279    95    92   56.3    0.0   56.3   0.00   3.11   70.0   50.6    5.8    3.1   3.11   1.10    0.00    1.32
 1995 280    96    93   59.3    0.0   59.3   0.00   3.09   74.7   52.6    6.7    3.1   3.09   1.15    0.00    1.40
 1995 281    97    94   62.0    0.0   62.0   0.00   3.06   79.3   54.4    7.7    3.1   3.06   1.17    0.00    1.48
 1995 282    98    95   63.9    0.0   63.9   0.00   3.06   83.2   55.6    8.3    3.1   3.06   1.18    0.00    1.57
 1995 283    99    96   65.8    0.0   65.8   0.00   3.03   86.8   56.8    9.0    3.0   3.03   1.17    0.00    1.67
 1995 284   100    97   68.2    0.0   68.2   0.00   3.02   90.4   58.3   10.0    3.0   3.02   1.14    0.00    1.78
 1995 285   101    98   70.8    0.0   70.8   0.00   3.01   91.5   59.9   10.9    3.0   3.01   1.07    0.00    1.90
 1995 286   102    99   72.3    0.0   72.3   0.00   3.02   96.1   60.9   11.4    3.0   3.02   1.17    0.00    2.01
 1995 287   103   100   73.7    0.0   73.7   0.00   2.98   99.2   61.5   12.2    3.0   2.98   1.15    0.00    2.13
 1995 288   104   101   77.7    0.0   77.7   0.00   2.95  104.2   63.8   13.9    3.0   2.95   1.13    0.00    2.26
 1995 289   105   102   81.1    0.0   81.1   0.00   2.93  109.2   65.6   15.5    2.9   2.93   1.13    0.00    2.40
 1995 290   106   103   83.1    0.0   83.1   0.00   2.92  111.7   66.7   16.4    2.9   2.92   1.11    0.00    2.55
 1995 291   107   104   85.8    0.0   85.8   0.00   2.90  116.9   68.1   17.7    2.9   2.90   1.13    0.00    2.70
 1995 292   108   105   89.1    0.0   89.1   0.00   2.88  120.4   69.7   19.3    2.9   2.88   1.11    0.00    2.86
 1995 293   109   106   92.3    0.0   92.3   0.00   2.86  125.8   71.3   21.0    2.9   2.86   1.12    0.00    3.02
 1995 294   110   107   95.4    0.0   95.4   0.00   2.85  130.7   72.8   22.6    2.8   2.85   1.12    0.00    3.19
 1995 295   111   108  100.2    0.0  100.2   0.00   2.82  136.6   74.9   25.3    2.8   2.82   1.11    0.00    3.37
 1995 296   112   109  104.8    0.0  104.8   0.00   2.74  141.6   76.4   28.5    2.7   2.74   1.09    0.00    3.56
 1995 297   113   110  108.7    0.0  108.7   0.00   2.62  145.6   76.9   31.9    2.6   2.62   1.08    0.00    3.74
 1995 298   114   111  112.3    0.0  112.3   0.00   2.59  149.0   78.1   34.2    2.6   2.59   1.08    0.00    3.93
 1995 299   115   112  115.0    0.0  115.0   0.00   2.57  151.5   80.2   34.8    2.6   2.57   1.08    0.00    4.12
 1995 300   116   113  117.1    0.0  117.1   0.00   2.55  153.6   81.4   35.7    2.5   2.55   1.08    0.00    4.31
 1995 301   117   114  118.6    0.0  118.6   0.00   2.49  155.5   81.9   36.7    2.5   2.49   1.05    0.00    4.49
 1995 302   118   115  120.0    0.0  120.0   0.00   2.46  157.4   82.3   37.6    2.5   2.46   1.02    0.00    4.68
 1995 303   119   116  121.0    0.0  121.0   0.00   2.40  158.9   82.3   38.7    2.4   2.40   0.99    0.00    4.87
 1995 304   120   117  121.9    0.0  121.9   0.00   2.31  160.0   81.5   40.4    2.3   2.31   0.96    0.00    5.07
 1995 305   121   118  122.7    0.0  122.7   0.00   2.20  161.1   80.2   42.5    2.2   2.20   0.95    0.00    5.26
 1995 306   122   119  123.4    0.0  123.4   0.00   2.09  161.9   78.7   44.7    2.1   2.09   0.93    0.00    5.46
 1995 307   123   120  124.5    0.0  124.5   0.00   2.00  163.3   77.4   47.1    2.0   2.00   0.92    0.00    5.65
 1995 308   124   121  125.7    0.0  125.7   0.00   1.90  164.8   75.9   49.9    1.9   1.90   0.91    0.00    5.85
 1995 309   125   122  127.0    0.0  127.0   0.00   1.81  166.2   74.4   52.6    1.8   1.81   0.91    0.00    6.05
 1995 310   126   123  128.2    0.0  128.2   0.00   1.75  167.6   73.3   54.8    1.7   1.75   0.91    0.00    6.25
 1995 311   127   124  129.3    0.0  129.3   0.00   1.73  168.9   73.2   56.1    1.7   1.73   0.92    0.00    6.45
 1995 312   128   125  130.2    0.0  130.2   0.00   1.71  169.9   73.0   57.2    1.7   1.71   0.92    0.00    6.65
 1995 313   129   126  131.0    0.0  131.0   0.00   1.68  170.8   72.6   58.3    1.7   1.68   0.93    0.00    6.85
 1995 314   130   127  131.7    0.0  131.7   0.00   1.65  171.7   72.1   59.6    1.6   1.65   0.91    0.00    7.05
 1995 315   131   128  132.7    0.0  132.7   0.00   1.62  172.8   71.7   61.0    1.6   1.62   0.89    0.00    7.26
 1995 316   132   129  133.5    0.0  133.5   0.00   1.60  173.9   71.4   62.1    1.6   1.60   0.88    0.00    7.46
 1995 317   133   130  134.3    0.0  134.3   0.00   1.57  174.8   71.0   63.3    1.6   1.57   0.86    0.00    7.66
 1995 318   134   131  135.0    0.0  135.0   0.00   1.54  175.7   70.5   64.6    1.5   1.54   0.85    0.00    7.87
 1995 319   135   132  135.7    0.0  135.7   0.00   1.68  176.5   76.0   59.7    1.7   1.68   0.84    0.00    8.07
 1995 320   136   133  136.3    0.0  136.3   0.00   1.68  177.2   75.5   60.8    1.7   1.68   0.84    0.00    8.28
 1995 321   137   134  136.7    0.0  136.7   0.00   1.69  177.8   74.9   61.8    1.7   1.69   0.83    0.00    8.48
 1995 322   138   135  137.3    0.0  137.3   0.00   1.69  178.6   74.3   63.0    1.7   1.69   0.81    0.00    8.69
 1995 323   139   136  138.1    0.0  138.1   0.00   1.70  179.8   73.9   64.2    1.7   1.70   0.79    0.00    8.90
 1995 324   140   137  138.8    0.0  138.8   0.00   1.71  181.0   73.3   65.6    1.7   1.71   0.77    0.00    9.11
 1995 325   141   138  139.5    0.0  139.5   0.00   1.72  182.0   72.5   67.0    1.7   1.72   0.77    0.00    9.32
 1995 326   142   139  140.1    0.0  140.1   0.00   1.73  183.0   71.7   68.4    1.7   1.73   0.78    0.00    9.54
 1995 327   143   140  140.7    0.0  140.7   0.00   1.73  184.0   70.8   69.9    1.7   1.73   0.79    0.00    9.75
 1995 328   144   141  141.2    0.0  141.2   0.00   1.74  184.9   69.9   71.3    1.7   1.74   0.78    0.00    9.97
 1995 329   145   142  141.7    0.0  141.7   0.00   1.75  185.8   69.0   72.7    1.7   1.75   0.78    0.00   10.19
 1995 330   146   143  142.1    0.0  142.1   0.00   1.75  186.7   67.8   74.3    1.7   1.75   0.77    0.00   10.41
 1995 331   147   144  142.4    0.0  142.4   0.00   1.76  187.6   66.9   75.5    1.8   1.76   0.76    0.00   10.64
 1995 332   148   145  142.7    0.0  142.7   0.00   1.77  188.5   65.9   76.8    1.8   1.77   0.75    0.00   10.86
 1995 333   149   146  142.9    0.0  142.9   0.00   1.77  189.3   64.7   78.2    1.8   1.77   0.74    0.00   11.09
 1995 334   150   147  143.2    4.8  138.4   1.68   1.72  190.1   62.6   75.7    1.7   1.72   0.74    0.00   11.32
 1995 335   151   148  143.5    9.5  134.0   1.66   1.67  190.8   60.9   73.1    1.7   1.67   0.75    0.00   11.56
 1995 336   152   149  143.8   14.1  129.7   1.64   1.61  191.6   58.7   71.0    1.6   1.61   0.76    0.00   11.80
 1995 337   153   150  144.2   18.7  125.5   1.63   1.56  192.4   56.8   68.7    1.6   1.56   0.76    0.00   12.04
 1995 338   154   151  144.6   23.2  121.4   1.62   1.51  193.1   54.9   66.4    1.5   1.51   0.76    0.00   12.28
 1995 339   155   152  144.9   27.6  117.3   1.61   1.46  193.8   53.1   64.2    1.5   1.46   0.76    0.00   12.52
 1995 340   156   153  145.3   32.0  113.3   1.60   1.41  194.5   51.3   62.0    1.4   1.41   0.76    0.00   12.76
 1995 341   157   154  145.7   36.3  109.3   1.58   1.36  195.2   49.5   59.9    1.4   1.36   0.77    0.00   13.01
 1995 342   158   155  146.0   39.1  106.9   1.57   1.33  195.8   48.4   58.5    1.3   1.33   0.76    0.00   13.26
 1995 343   159   156  146.3   41.4  104.9   1.57   1.30  196.4   47.5   57.4    1.3   1.30   0.76    0.00   13.51
 1995 344   160   157  146.6   44.6  101.9   1.56   1.27  196.9   46.1   55.8    1.3   1.27   0.76    0.00   13.76
 1995 345   161   158  146.8   48.1   98.7   1.55   1.23  197.4   44.7   54.0    1.2   1.23   0.76    0.00   14.01
 1995 346   162   159  147.1   50.2   96.9   1.55   1.20  197.8   43.8   53.0    1.2   1.20   0.76    0.00   14.26
 1995 347   163   160  147.3   53.1   94.2   1.54   1.17  198.3   42.6   51.5    1.2   1.17   0.76    0.00   14.51
 1995 348   164   161  147.5   55.8   91.7   1.54   1.14  198.7   41.5   50.2    1.1   1.14   0.76    0.00   14.77
 1995 349   165   162  147.8   58.5   89.3   1.53   1.11  199.1   40.4   48.9    1.1   1.11   0.77    0.00   15.02
 1995 350   166   163  148.0   61.1   86.9   1.53   1.08  199.5   39.3   47.5    1.1   1.08   0.77    0.00   15.28
 1995 351   167   164  148.2   63.7   84.5   1.52   1.05  199.8   38.3   46.3    1.0   1.05   0.78    0.00   15.53
 1995 352   168   165  148.4   66.1   82.3   1.52   1.03  200.2   37.4   44.9    1.0   1.03   0.78    0.00   15.79
 1995 353   169   166  148.6   68.5   80.1   1.51   1.00  200.5   36.4   43.7    1.0   1.00   0.79    0.00   16.05
 1995 354   170   167  148.7   70.8   77.9   1.51   0.97  200.8   35.5   42.4    1.0   0.97   0.79    0.00   16.30
 1995 355   171   168  148.9   73.2   75.7   1.51   0.95  201.0   34.6   41.0    1.0   0.95   0.80    0.00   16.56
 1995 356   172   169  149.4   75.8   73.6   1.50   0.93  201.9   33.9   39.7    0.9   0.93   0.81    0.00   16.82
 1995 357   173   170  149.7   78.9   70.9   1.49   0.91  202.4   33.0   37.8    0.9   0.91   0.81    0.00   17.08
 1995 358   174   171  150.0   82.0   67.9   1.47   0.88  202.9   32.2   35.7    0.9   0.88   0.82    0.00   17.34
 1995 359   175   172  150.3   85.2   65.1   1.46   0.86  203.4   31.3   33.8    0.9   0.86   0.83    0.00   17.60
 1995 360   176   173  150.6   88.2   62.4   1.44   0.81  204.0   29.6   32.8    0.8   0.81   0.83    0.00   17.87
 1995 361   177   174  151.2   91.0   60.2   1.43   0.77  204.8   28.2   32.0    0.8   0.77   0.83    0.00   18.13
 1995 362   178   175  151.6   93.7   57.9   1.41   0.73  205.4   26.7   31.1    0.7   0.73   0.83    0.00   18.40
 1995 363   179   176  152.0   96.4   55.6   1.40   0.70  206.0   25.5   30.1    0.7   0.70   0.83    0.00   18.66
 1995 364   180   177  152.5   98.9   53.6   1.38   0.67  206.7   24.4   29.2    0.7   0.67   0.84    0.00   18.93
 1995 365   181   178  153.0  101.2   51.8   1.36   0.65  207.4   23.5   28.3    0.6   0.65   0.84    0.00   19.20
 1996 001   182   179  153.4  103.4   50.1   1.34   0.62  208.1   22.7   27.4    0.6   0.62   0.85    0.00   19.47
 1996 002   183   180  153.9  105.6   48.3   1.32   0.60  208.8   21.9   26.4    0.6   0.60   0.86    0.00   19.74
 1996 003   184   181  154.4  107.8   46.6   1.30   0.58  209.5   21.2   25.4    0.6   0.58   0.86    0.00   20.01
 1996 004   185   182  154.9  109.8   45.1   1.28   0.57  210.1   20.9   24.2    0.6   0.57   0.87    0.00   20.28
 1996 005   186   183  154.9  109.8   45.1   1.28   0.57  210.8   20.9   24.2    0.6   0.57   0.87    0.00   20.28
 1996 006   187   184  154.9  109.8   45.1   1.28   0.57  211.5   20.9   24.2    0.6   0.57   0.87    0.00   20.28
 1996 007   188   185  154.9  109.8   45.1   1.28   0.57  212.1   20.9   24.2    0.6   0.57   0.87    0.00   20.28
 1996 008   189   186  154.9  109.8   45.1   1.28   0.57  212.8   20.9   24.2    0.6   0.57   0.87    0.00   20.28
