*GROWTH ASPECTS OUTPUT FILE

*DSSAT Cropping System Model Ver. 4.0.2.000               Jul 19, 2016; 16:44:49

*RUN   1        : UYMZ                    
 MODEL          : MZCER040 - Maize           
 EXPERIMENT     : UYMZ0040 MZ    late to create DSS                             
 TREATMENT  1   : UYMZ                    

@YEAR DOY   DAS   DAP   L#SD   GSTD   LAID   LWAD   SWAD   GWAD   RWAD   CWAD   G#AD   GWGD   HIAD   PWAD   P#AD   WSPD   WSGD   NSTD   EWSD   LN%D   SH%D   HIPD   PWDD   PWTD     SLAD   CHTD   CWID   RDPD   RL1D   RL2D   RL3D   RL4D   RL5D   RL6D   RL7D   RL8D   RL9D   RL10   CDAD   LDAD   SDAD   SNW0C   SNW1C
 1990 187     3     0    0.0      0   0.00      0      0      0      0      0      0    0.0  0.000      0      0  0.000  0.000  0.000  0.000   0.00   0.00   0.00      0      0      0.0   0.00   0.00   0.03   0.00   0.00   0.00   0.00   0.00   0.00   0.00   0.00   0.00   0.00      0      0      0       0       0
 1990 188     4     1    0.0      0   0.00      0      0      0      0      0      0    0.0  0.000      0      0  0.000  0.000  0.000  0.000   0.00   0.00   0.00      0      0      0.0   0.00   0.00   0.03   0.00   0.00   0.00   0.00   0.00   0.00   0.00   0.00   0.00   0.00      0      0      0       0       0
 1990 189     5     2    0.0      0   0.00      0      0      0      0      0      0    0.0  0.000      0      0  0.000  0.000  0.000  0.000   0.00   0.00   0.00      0      0      0.0   0.00   0.00   0.03   0.00   0.00   0.00   0.00   0.00   0.00   0.00   0.00   0.00   0.00      0      0      0       0       0
 1990 190     6     3    0.0      0   0.00      0      0      0      0      0      0    0.0  0.000      0      0  0.000  0.000  0.000  0.000   0.00   0.00   0.00      0      0      0.0   0.00   0.00   0.03   0.00   0.00   0.00   0.00   0.00   0.00   0.00   0.00   0.00   0.00      0      0      0       0       0
 1990 191     7     4    0.0      0   0.00      0      0      0      0      0      0    0.0  0.000      0      0  0.000  0.000  0.000  0.000   0.00   0.00   0.00      0      0      0.0   0.00   0.00   0.03   0.00   0.00   0.00   0.00   0.00   0.00   0.00   0.00   0.00   0.00      0      0      0       0       0
 1990 192     8     5    0.0      0   0.00      0      0      0      0      0      0    0.0  0.000      0      0  0.000  0.000  0.000  0.000   0.00   0.00   0.00      0      0      0.0   0.00   0.00   0.03   0.00   0.00   0.00   0.00   0.00   0.00   0.00   0.00   0.00   0.00      0      0      0       0       0
 1990 193     9     6    0.0      0   0.00      0      0      0      0      0      0    0.0  0.000      0      0  0.000  0.000  0.000  0.000   0.00   0.00   0.00      0      0      0.0   0.00   0.00   0.03   0.00   0.00   0.00   0.00   0.00   0.00   0.00   0.00   0.00   0.00      0      0      0       0       0
 1990 194    10     7    0.0      0   0.00      0      0      0      0      0      0    0.0  0.000      0      0  0.000  0.000  0.000  0.000   0.00   0.00   0.00      0      0      0.0   0.00   0.00   0.03   0.00   0.00   0.00   0.00   0.00   0.00   0.00   0.00   0.00   0.00      0      0      0       0       0
 1990 195    11     8    0.0      0   0.00      0      0      0      0      0      0    0.0  0.000      0      0  0.000  0.000  0.000  0.000   0.00   0.00   0.00      0      0      0.0   0.00   0.00   0.03   0.00   0.00   0.00   0.00   0.00   0.00   0.00   0.00   0.00   0.00      0      0      0       0       0
 1990 196    12     9    0.0      0   0.00      0      0      0      0      0      0    0.0  0.000      0      0  0.000  0.000  0.000  0.000   0.00   0.00   0.00      0      0      0.0   0.00   0.00   0.03   0.00   0.00   0.00   0.00   0.00   0.00   0.00   0.00   0.00   0.00      0      0      0       0       0
 1990 197    13    10    0.0      0   0.00      0      0      0      0      0      0    0.0  0.000      0      0  0.000  0.000  0.000  0.000   0.00   0.00   0.00      0      0      0.0   0.00   0.00   0.03   0.00   0.00   0.00   0.00   0.00   0.00   0.00   0.00   0.00   0.00      0      0      0       0       0
 1990 198    14    11    0.0      0   0.00      0      0      0      0      0      0    0.0  0.000      0      0  0.000  0.000  0.000  0.000   0.00   0.00   0.00      0      0      0.0   0.00   0.00   0.04   0.00   0.00   0.00   0.00   0.00   0.00   0.00   0.00   0.00   0.00      0      0      0       0       0
 1990 199    15    12    0.0      0   0.00      0      0      0      0      0      0    0.0  0.000      0      0  0.000  0.000  0.000  0.000   0.00   0.00   0.00      0      0      0.0   0.00   0.00   0.04   0.00   0.00   0.00   0.00   0.00   0.00   0.00   0.00   0.00   0.00      0      0      0       0       0
 1990 200    16    13    0.0      0   0.00      0      0      0      0      0      0    0.0  0.000      0      0  0.000  0.000  0.000  0.000   0.00   0.00   0.00      0      0      0.0   0.00   0.00   0.04   0.00   0.00   0.00   0.00   0.00   0.00   0.00   0.00   0.00   0.00      0      0      0       0       0
 1990 201    17    14    0.0      0   0.00      0      0      0      0      0      0    0.0  0.000      0      0  0.000  0.000  0.000  0.000   0.00   0.00   0.00      0      0      0.0   0.00   0.00   0.04   0.00   0.00   0.00   0.00   0.00   0.00   0.00   0.00   0.00   0.00      0      0      0       0       0
 1990 202    18    15    0.0      0   0.00      0      0      0      0      0      0    0.0  0.000      0      0  0.000  0.000  0.000  0.000   0.00   0.00   0.00      0      0      0.0   0.00   0.00   0.04   0.00   0.00   0.00   0.00   0.00   0.00   0.00   0.00   0.00   0.00      0      0      0       0       0
 1990 203    19    16    0.0      0   0.00      0      0      0      0      0      0    0.0  0.000      0      0  0.000  0.000  0.000  0.000   0.00   0.00   0.00      0      0      0.0   0.00   0.00   0.04   0.00   0.00   0.00   0.00   0.00   0.00   0.00   0.00   0.00   0.00      0      0      0       0       0
 1990 204    20    17    0.0      0   0.00      0      0      0      0      0      0    0.0  0.000      0      0  0.000  0.000  0.000  0.000   0.00   0.00   0.00      0      0      0.0   0.00   0.00   0.04   0.00   0.00   0.00   0.00   0.00   0.00   0.00   0.00   0.00   0.00      0      0      0       0       0
 1990 205    21    18    0.0      0   0.00      0      0      0      0      0      0    0.0  0.000      0      0  0.000  0.000  0.000  0.000   0.00   0.00   0.00      0      0      0.0   0.00   0.00   0.04   0.00   0.00   0.00   0.00   0.00   0.00   0.00   0.00   0.00   0.00      0      0      0       0       0
 1990 206    22    19    0.0      0   0.00      0      0      0      0      0      0    0.0  0.000      0      0  0.000  0.000  0.000  0.000   0.00   0.00   0.00      0      0      0.0   0.00   0.00   0.04   0.00   0.00   0.00   0.00   0.00   0.00   0.00   0.00   0.00   0.00      0      0      0       0       0
 1990 207    23    20    0.0      0   0.00      0      0      0      0      0      0    0.0  0.000      0      0  0.000  0.000  0.000  0.000   0.00   0.00   0.00      0      0      0.0   0.00   0.00   0.05   0.00   0.00   0.00   0.00   0.00   0.00   0.00   0.00   0.00   0.00      0      0      0       0       0
 1990 208    24    21    0.0      0   0.00      0      0      0      0      0      0    0.0  0.000      0      0  0.000  0.000  0.000  0.000   0.00   0.00   0.00      0      0      0.0   0.00   0.00   0.05   0.00   0.00   0.00   0.00   0.00   0.00   0.00   0.00   0.00   0.00      0      0      0       0       0
 1990 209    25    22    0.0      0   0.00      0      0      0      0      0      0    0.0  0.000      0      0  0.000  0.000  0.000  0.000   0.00   0.00   0.00      0      0      0.0   0.00   0.00   0.05   0.00   0.00   0.00   0.00   0.00   0.00   0.00   0.00   0.00   0.00      0      0      0       0       0
 1990 210    26    23    0.0      0   0.00      0      0      0      0      0      0    0.0  0.000      0      0  0.000  0.000  0.000  0.000   0.00   0.00   0.00      0      0      0.0   0.00   0.00   0.05   0.00   0.00   0.00   0.00   0.00   0.00   0.00   0.00   0.00   0.00      0      0      0       0       0
 1990 211    27    24    0.0      0   0.00      0      0      0      0      0      0    0.0  0.000      0      0  0.000  0.000  0.000  0.000   0.00   0.00   0.00      0      0      0.0   0.00   0.00   0.05   0.00   0.00   0.00   0.00   0.00   0.00   0.00   0.00   0.00   0.00      0      0      0       0       0
 1990 212    28    25    0.0      0   0.00      0      0      0      0      0      0    0.0  0.000      0      0  0.000  0.000  0.000  0.000   0.00   0.00   0.00      0      0      0.0   0.00   0.00   0.05   0.00   0.00   0.00   0.00   0.00   0.00   0.00   0.00   0.00   0.00      0      0      0       0       0
 1990 213    29    26    0.0      0   0.00      0      0      0      0      0      0    0.0  0.000      0      0  0.000  0.000  0.000  0.000   0.00   0.00   0.00      0      0      0.0   0.00   0.00   0.06   0.00   0.00   0.00   0.00   0.00   0.00   0.00   0.00   0.00   0.00      0      0      0       0       0
 1990 214    30    27    0.0      0   0.00      0      0      0      0      0      0    0.0  0.000      0      0  0.000  0.000  0.000  0.000   0.00   0.00   0.00      0      0      0.0   0.00   0.00   0.06   0.00   0.00   0.00   0.00   0.00   0.00   0.00   0.00   0.00   0.00      0      0      0       0       0
 1990 215    31    28    0.0      0   0.00      0      0      0      0      0      0    0.0  0.000      0      0  0.000  0.000  0.000  0.000   0.00   0.00   0.00      0      0      0.0   0.00   0.00   0.07   0.00   0.00   0.00   0.00   0.00   0.00   0.00   0.00   0.00   0.00      0      0      0       0       0
 1990 216    32    29    0.0      0   0.00      0      0      0      0      0      0    0.0  0.000      0      0  0.000  0.000  0.000  0.000   0.00   0.00   0.00      0      0      0.0   0.00   0.00   0.08   0.00   0.00   0.00   0.00   0.00   0.00   0.00   0.00   0.00   0.00      0      0      0       0       0
 1990 217    33    30    0.0      0   0.00      0      0      0      0      0      0    0.0  0.000      0      0  0.000  0.000  0.000  0.000   0.00   0.00   0.00      0      0      0.0   0.00   0.00   0.10   0.00   0.00   0.00   0.00   0.00   0.00   0.00   0.00   0.00   0.00      0      0      0       0       0
 1990 218    34    31    0.0      0   0.00      0      0      0      0      0      0    0.0  0.000      0      0  0.000  0.000  0.000  0.000   0.00   0.00   0.00      0      0      0.0   0.00   0.00   0.12   0.00   0.00   0.00   0.00   0.00   0.00   0.00   0.00   0.00   0.00      0      0      0       0       0
 1990 219    35    32    1.0      1   0.00     14     14      0     14     28      0    0.0  0.000      0      0  0.000  0.000  0.012  0.000   4.40   0.00   0.00      0      0     23.8   0.00   0.00   0.13   0.28   0.09   0.00   0.00   0.00   0.00   0.00   0.00   0.00   0.00      0      0      0       0       0
 1990 220    36    33    2.0      1   0.01     14     14      0     14     28      0    0.0  0.000      0      0  0.000  0.193  0.015  0.000   4.52   0.00   0.00      0      0     39.4   0.00   0.00   0.14   0.28   0.10   0.00   0.00   0.00   0.00   0.00   0.00   0.00   0.00      0      0      0       0       0
 1990 221    37    34    2.0      1   0.01     14     14      0     15     28      0    0.0  0.000      0      0  0.263  0.509  0.000  0.000   4.50   0.00   0.00      0      0     45.9   0.00   0.00   0.14   0.27   0.11   0.00   0.00   0.00   0.00   0.00   0.00   0.00   0.00      0      0      0       0       0
 1990 222    38    35    2.0      1   0.01     14     14      0     15     28      0    0.0  0.000      0      0  0.338  0.559  0.000  0.000   4.48   0.00   0.00      0      0     52.2   0.00   0.00   0.15   0.27   0.12   0.00   0.00   0.00   0.00   0.00   0.00   0.00   0.00      0      0      0       0       0
 1990 223    39    36    3.0      1   0.01     14     14      0     16     28      0    0.0  0.000      0      0  0.441  0.628  0.000  0.000   4.48   0.00   0.00      0      0     61.3   0.00   0.00   0.16   0.27   0.13   0.00   0.00   0.00   0.00   0.00   0.00   0.00   0.00      0      0      0       0       0
 1990 224    40    37    3.0      1   0.01     14     14      0     16     28      0    0.0  0.000      0      0  0.489  0.660  0.000  0.000   4.48   0.00   0.00      0      0     70.1   0.00   0.00   0.18   0.27   0.14   0.00   0.00   0.00   0.00   0.00   0.00   0.00   0.00      0      0      0       0       0
 1990 225    41    38    4.0      1   0.01     14     14      0     17     28      0    0.0  0.000      0      0  0.486  0.658  0.000  0.000   4.48   0.00   0.00      0      0    103.3   0.00   0.00   0.19   0.27   0.14   0.00   0.00   0.00   0.00   0.00   0.00   0.00   0.00      0      0      0       0       0
 1990 226    42    39    4.0      1   0.03     14     14      0     17     28      0    0.0  0.000      0      0  0.000  0.294  0.000  0.000   4.48   0.00   0.00      0      0    182.7   0.00   0.00   0.20   0.26   0.15   0.01   0.00   0.00   0.00   0.00   0.00   0.00   0.00      0      0      0       0       0
 1990 227    43    40    4.0      1   0.03     14     14      0     18     28      0    0.0  0.000      0      0  0.460  0.640  0.000  0.000   4.33   0.00   0.00      0      0    195.8   0.00   0.00   0.21   0.27   0.16   0.01   0.00   0.00   0.00   0.00   0.00   0.00   0.00      0      0      0       0       0
 1990 228    44    41    4.0      1   0.04     14     14      0     22     28      0    0.0  0.000      0      0  0.000  0.000  0.000  0.000   4.32   0.00   0.00      0      0    258.7   0.00   0.00   0.22   0.30   0.19   0.02   0.00   0.00   0.00   0.00   0.00   0.00   0.00      0      0      0       0       0
 1990 229    45    42    5.0      1   0.05     14     14      0     27     28      0    0.0  0.000      0      0  0.000  0.000  0.000  0.000   4.27   0.00   0.00      0      0    333.8   0.00   0.00   0.22   0.35   0.24   0.05   0.00   0.00   0.00   0.00   0.00   0.00   0.00      0      0      0       0       0
 1990 230    46    43    5.0      1   0.06     18     14      0     32     32      0    0.0  0.000      0      0  0.000  0.000  0.000  0.000   3.79   0.00   0.00      0      0    320.6   0.00   0.00   0.23   0.37   0.28   0.07   0.00   0.00   0.00   0.00   0.00   0.00   0.00      0      0      0       0       1
 1990 231    47    44    5.0      1   0.07     23     14      0     35     37      0    0.0  0.000      0      0  0.000  0.000  0.000  0.000   3.65   0.00   0.00      0      0    306.0   0.00   0.00   0.24   0.38   0.32   0.09   0.00   0.00   0.00   0.00   0.00   0.00   0.00      0      0      0       0       1
 1990 232    48    45    5.0      1   0.09     29     14      0     43     43      0    0.0  0.000      0      0  0.000  0.000  0.000  0.000   3.64   0.00   0.00      0      0    293.1   0.00   0.00   0.25   0.39   0.39   0.13   0.00   0.00   0.00   0.00   0.00   0.00   0.00      0      0      0       0       1
 1990 233    49    46    5.0      1   0.10     35     14      0     51     49      0    0.0  0.000      0      0  0.000  0.000  0.000  0.000   3.77   0.00   0.00      0      0    284.2   0.00   0.00   0.25   0.39   0.47   0.19   0.00   0.00   0.00   0.00   0.00   0.00   0.00      0      0      0       0       1
 1990 234    50    47    6.0      1   0.11     40     14      0     58     54      0    0.0  0.000      0      0  0.000  0.000  0.000  0.000   3.82   0.00   0.00      0      0    277.2   0.00   0.00   0.26   0.39   0.54   0.24   0.00   0.00   0.00   0.00   0.00   0.00   0.00      0      0      0       0       1
 1990 235    51    48    6.0      1   0.11     42     14      0     67     56      0    0.0  0.000      0      0  0.000  0.000  0.000  0.000   4.02   0.00   0.00      0      0    267.1   0.00   0.00   0.26   0.39   0.62   0.29   0.00   0.00   0.00   0.00   0.00   0.00   0.00      0      0      0       0       2
 1990 236    52    49    6.0      1   0.11     45     14      0     74     59      0    0.0  0.000      0      0  0.000  0.000  0.000  0.000   3.98   0.00   0.00      0      0    249.9   0.00   0.00   0.26   0.39   0.68   0.34   0.00   0.00   0.00   0.00   0.00   0.00   0.00      0      0      0       0       2
 1990 237    53    50    6.0      1   0.14     56     14      0     81     70      0    0.0  0.000      0      0  0.000  0.000  0.000  0.000   3.57   0.00   0.00      0      0    243.5   0.00   0.00   0.27   0.39   0.75   0.39   0.00   0.00   0.00   0.00   0.00   0.00   0.00      0      0      0       0       2
 1990 238    54    51    6.0      1   0.16     69     14      0     92     83      0    0.0  0.000      0      0  0.000  0.000  0.000  0.000   3.47   0.00   0.00      0      0    236.2   0.00   0.00   0.29   0.38   0.84   0.48   0.00   0.00   0.00   0.00   0.00   0.00   0.00      0      0      0       0       3
 1990 239    55    52    6.0      1   0.17     74     14      0     97     88      0    0.0  0.000      0      0  0.000  0.000  0.000  0.000   3.92   0.00   0.00      0      0    233.3   0.00   0.00   0.29   0.41   0.88   0.51   0.00   0.00   0.00   0.00   0.00   0.00   0.00      0      0      0       0       3
 1990 240    56    53    6.0      1   0.14     74     14      0    100     88      0    0.0  0.000      0      0  0.000  0.000  0.000  0.000   4.14   0.00   0.00      0      0    196.0   0.00   0.00   0.29   0.43   0.90   0.53   0.00   0.00   0.00   0.00   0.00   0.00   0.00      0      0      0       0       4
 1990 241    57    54    6.0      1   0.07     76     14      0    108     90      0    0.0  0.000      0      0  0.000  0.000  0.000  0.000   4.05   0.00   0.00      0      0     94.4   0.00   0.00   0.29   0.47   0.95   0.58   0.00   0.00   0.00   0.00   0.00   0.00   0.00      0      0      0       0       4
 1990 242    58    55    6.0      1   0.08     83     14      0    114     97      0    0.0  0.000      0      0  0.000  0.000  0.000  0.000   3.73   0.00   0.00      0      0     93.7   0.00   0.00   0.30   0.50   0.99   0.62   0.00   0.00   0.00   0.00   0.00   0.00   0.00      0      0      0       0       4
 1990 243    59    56    7.0      1   0.08     84     14      0    114     98      0    0.0  0.000      0      0  0.000  0.000  0.010  0.000   4.08   0.00   0.00      0      0     94.7   0.00   0.00   0.30   0.50   0.99   0.62   0.00   0.00   0.00   0.00   0.00   0.00   0.00      0      0      0       0       4
 1990 244    60    57    7.0      1   0.06     84     14      0    114     98      0    0.0  0.000      0      0  0.000  0.000  0.000  0.000   4.12   0.00   0.00      0      0     69.1   0.00   0.00   0.30   0.50   0.99   0.62   0.00   0.00   0.00   0.00   0.00   0.00   0.00      0      0      0       0       5
 1990 245    61    58    7.0      1   0.02     85     14      0    115     99      0    0.0  0.000      0      0  0.000  0.000  0.000  0.000   4.11   0.00   0.00      0      0     21.7   0.00   0.00   0.30   0.50   0.99   0.63   0.00   0.00   0.00   0.00   0.00   0.00   0.00      0      0      0       0       5
 1990 246    62    59    7.0      1   0.02     89     14      0    115    103      0    0.0  0.000      0      0  0.000  0.000  0.000  0.000   3.94   0.00   0.00      0      0     26.1   0.00   0.00   0.30   0.50   0.99   0.63   0.00   0.00   0.00   0.00   0.00   0.00   0.00      0      0      0       0       5
 1990 247    63    60    7.0      1   0.03     95     14      0    115    109      0    0.0  0.000      0      0  0.000  0.000  0.000  0.000   3.89   0.00   0.00      0      0     35.8   0.00   0.00   0.30   0.50   0.99   0.63   0.00   0.00   0.00   0.00   0.00   0.00   0.00      0      0      0       0       6
 1990 248    64    61    7.0      1   0.05     97     14      0    115    111      0    0.0  0.000      0      0  0.000  0.000  0.000  0.000   4.02   0.00   0.00      0      0     55.1   0.00   0.00   0.31   0.50   0.99   0.63   0.00   0.00   0.00   0.00   0.00   0.00   0.00      0      0      0       0       7
 1990 249    65    62    7.0      1   0.06     99     14      0    115    113      0    0.0  0.000      0      0  0.000  0.000  0.000  0.000   3.98   0.00   0.00      0      0     58.9   0.00   0.00   0.31   0.50   0.98   0.63   0.00   0.00   0.00   0.00   0.00   0.00   0.00      0      0      0       0       7
 1990 250    66    63    7.0      1   0.06    102     14      0    115    116      0    0.0  0.000      0      0  0.000  0.000  0.000  0.000   3.95   0.00   0.00      0      0     63.1   0.00   0.00   0.32   0.50   0.98   0.63   0.00   0.00   0.00   0.00   0.00   0.00   0.00      0      0      0       0       8
 1990 251    67    64    7.0      1   0.07    105     14      0    115    119      0    0.0  0.000      0      0  0.000  0.000  0.000  0.000   3.96   0.00   0.00      0      0     66.3   0.00   0.00   0.32   0.50   0.98   0.63   0.00   0.00   0.00   0.00   0.00   0.00   0.00      0      0      0       0       8
 1990 252    68    65    8.0      1   0.10    121     14      0    117    135      0    0.0  0.000      0      0  0.000  0.000  0.000  0.000   3.52   0.00   0.00      0      0     84.3   0.00   0.00   0.33   0.51   1.00   0.64   0.00   0.00   0.00   0.00   0.00   0.00   0.00      0      0      0       0       9
 1990 253    69    66    8.0      1   0.14    140     14      0    120    154      0    0.0  0.000      0      0  0.000  0.000  0.000  0.011   3.51   0.00   0.00      0      0     98.6   0.00   0.00   0.35   0.52   1.01   0.66   0.00   0.00   0.00   0.00   0.00   0.00   0.00      0      0      0       0       9
 1990 254    70    67    8.0      1   0.17    156     14      0    122    170      0    0.0  0.000      0      0  0.000  0.000  0.000  0.233   3.61   0.00   0.00      0      0    107.3   0.00   0.00   0.36   0.51   1.00   0.66   0.00   0.00   0.00   0.00   0.00   0.00   0.00      0      0      0       0      10
 1990 255    71    68    8.0      1   0.20    173     14      0    125    187      0    0.0  0.000      0      0  0.000  0.000  0.000  0.160   3.60   0.00   0.00      0      0    114.0   0.00   0.00   0.36   0.51   1.00   0.67   0.01   0.00   0.00   0.00   0.00   0.00   0.00      0      0      0       0      11
 1990 256    72    69    8.0      1   0.20    187     14      0    127    201      0    0.0  0.000      0      0  0.000  0.000  0.000  0.097   3.71   0.00   0.00      0      0    105.6   0.00   0.00   0.36   0.51   1.01   0.68   0.01   0.00   0.00   0.00   0.00   0.00   0.00      0      0      0       0      11
 1990 257    73    70    8.0      1   0.14    207     14      0    130    221      0    0.0  0.000      0      0  0.000  0.000  0.000  0.034   3.60   0.00   0.00      0      0     68.8   0.00   0.00   0.37   0.52   1.03   0.70   0.01   0.00   0.00   0.00   0.00   0.00   0.00      0      0      0       0      12
 1990 258    74    71    8.0      1   0.15    218     14      0    144    232      0    0.0  0.000      0      0  0.000  0.000  0.000  0.000   3.77   0.00   0.00      0      0     68.5   0.00   0.00   0.37   0.56   1.12   0.80   0.03   0.00   0.00   0.00   0.00   0.00   0.00      0      0      0       0      13
 1990 259    75    72    9.0      1   0.18    240     14      0    154    254      0    0.0  0.000      0      0  0.000  0.000  0.000  0.000   3.60   0.00   0.00      0      0     76.7   0.00   0.00   0.38   0.60   1.18   0.86   0.05   0.00   0.00   0.00   0.00   0.00   0.00      0      0      0       0      13
 1990 260    76    73    9.0      1   0.21    259     14      0    158    273      0    0.0  0.000      0      0  0.000  0.000  0.000  0.000   3.65   0.00   0.00      0      0     82.5   0.00   0.00   0.39   0.61   1.20   0.89   0.05   0.00   0.00   0.00   0.00   0.00   0.00      0      0      0       0      14
 1990 261    77    74    9.0      1   0.24    279     14      0    162    293      0    0.0  0.000      0      0  0.000  0.000  0.000  0.000   3.64   0.00   0.00      0      0     87.7   0.00   0.00   0.40   0.59   1.15   0.86   0.06   0.00   0.00   0.00   0.00   0.00   0.00      0      0      0       0      15
 1990 262    78    75    9.0      2   0.28    279     14      0    185    293      0    0.0  0.000      0      0  0.000  0.000  0.000  0.000   3.90   0.00   0.00      0      0    100.7   0.00   0.00   0.41   0.62   1.25   0.98   0.10   0.00   0.00   0.00   0.00   0.00   0.00      0      0      0       0      16
 1990 263    79    76    9.0      2   0.31    298     14      0    188    312      0    0.0  0.000      0      0  0.000  0.000  0.000  0.123   3.67   0.00   0.00      0      0    104.6   0.00   0.00   0.42   0.61   1.25   0.99   0.10   0.00   0.00   0.00   0.00   0.00   0.00      0      0      0       0      16
 1990 264    80    77   10.0      2   0.34    318     14      0    191    332      0    0.0  0.000      0      0  0.000  0.000  0.000  0.062   3.58   0.00   0.00      0      0    108.3   0.00   0.00   0.43   0.61   1.25   1.00   0.11   0.00   0.00   0.00   0.00   0.00   0.00      0      0      0       0      17
 1990 265    81    78   10.0      2   0.39    346     14      0    227    360      0    0.0  0.000      0      0  0.000  0.000  0.000  0.005   3.79   0.00   0.00      0      0    112.2   0.00   0.00   0.44   0.70   1.45   1.23   0.20   0.00   0.00   0.00   0.00   0.00   0.00      0      0      0       0      18
 1990 266    82    79   10.0      3   0.39    354     14      0    251    368      0    0.0  0.000      0      0  0.000  0.000  0.022  0.000   3.75   0.00   0.00      0      0    111.3   0.00   0.00   0.44   0.76   1.58   1.37   0.25   0.00   0.00   0.00   0.00   0.00   0.00      0      0      0       0      19
 1990 267    83    80   10.0      3   0.38    364     14      0    283    378      0    0.0  0.000      0      0  0.000  0.000  0.022  0.000   3.66   0.00   0.00      0      0    103.7   0.00   0.00   0.44   0.86   1.75   1.56   0.33   0.00   0.00   0.00   0.00   0.00   0.00      0      0      0       0      20
 1990 268    84    81   10.0      3   0.36    377     14      0    319    391      0    0.0  0.000      0      0  0.000  0.000  0.022  0.000   3.64   0.00   0.00      0      0     96.5   0.00   0.00   0.45   0.96   1.95   1.79   0.42   0.00   0.00   0.00   0.00   0.00   0.00      0      0      0       0      21
 1990 269    85    82   10.0      3   0.40    404     14      0    369    418      0    0.0  0.000      0      0  0.000  0.000  0.022  0.000   3.56   0.00   0.00      0      0     99.4   0.00   0.00   0.46   1.12   2.21   2.08   0.55   0.00   0.00   0.00   0.00   0.00   0.00      0      0      0       0      23
 1990 270    86    83   10.0      3   0.47    450     14      0    408    464      0    0.0  0.000      0      0  0.000  0.000  0.022  0.000   3.53   0.00   0.00      0      0    104.1   0.00   0.00   0.47   1.23   2.40   2.30   0.64   0.01   0.00   0.00   0.00   0.00   0.00      0      0      0       0      25
 1990 271    87    84   11.0      3   0.53    491     15      0    408    506      0    0.0  0.000      0      0  0.000  0.000  0.022  0.000   3.50   0.00   0.00      0      0    107.3   0.00   0.00   0.48   1.23   2.39   2.29   0.64   0.01   0.00   0.00   0.00   0.00   0.00      0      0      0       0      27
 1990 272    88    85   11.0      3   0.59    536     16      0    455    551      0    0.0  0.000      0      0  0.000  0.000  0.022  0.000   3.48   0.00   0.00      0      0    110.1   0.00   0.00   0.49   1.38   2.61   2.56   0.75   0.03   0.00   0.00   0.00   0.00   0.00      0      0      0       0      29
 1990 273    89    86   11.0      3   0.66    586     17      0    506    603      0    0.0  0.000      0      0  0.000  0.000  0.022  0.000   3.45   0.00   0.00      0      0    112.4   0.00   0.00   0.50   1.54   2.86   2.84   0.86   0.07   0.00   0.00   0.00   0.00   0.00      0      0      0       0      31
 1990 274    90    87   11.0      3   0.76    660     21      0    561    681      0    0.0  0.000      0      0  0.000  0.000  0.022  0.000   3.41   0.00   0.00      0      0    115.0   0.00   0.00   0.52   1.72   3.12   3.14   0.99   0.11   0.00   0.00   0.00   0.00   0.00      0      0      0       0      34
 1990 275    91    88   12.0      3   0.86    734     26      0    638    759      0    0.0  0.000      0      0  0.000  0.000  0.022  0.000   3.38   0.00   0.00      0      0    116.7   0.00   0.00   0.53   1.97   3.49   3.57   1.16   0.19   0.00   0.00   0.00   0.00   0.00      0      0      0       0      36
 1990 276    92    89   12.0      3   0.97    824     34      0    703    858      0    0.0  0.000      0      0  0.000  0.000  0.022  0.000   3.34   0.00   0.00      0      0    118.0   0.00   0.00   0.55   2.17   3.79   3.92   1.31   0.26   0.00   0.00   0.00   0.00   0.00      0      0      0       0      40
 1990 277    93    90   12.0      3   1.13    947     49      0    734    995      0    0.0  0.000      0      0  0.000  0.000  0.022  0.000   3.29   0.00   0.00      0      0    119.1   0.00   0.00   0.57   2.27   3.93   4.00   1.38   0.31   0.00   0.00   0.00   0.00   0.00      0      0      0       0      43
 1990 278    94    91   13.0      3   1.21   1018     59      0    735   1077      0    0.0  0.000      0      0  0.000  0.000  0.022  0.000   3.26   0.00   0.00      0      0    119.2   0.00   0.00   0.58   2.27   3.93   4.00   1.38   0.31   0.00   0.00   0.00   0.00   0.00      0      0      0       0      47
 1990 279    95    92   13.0      3   1.33   1113     76      0    738   1189      0    0.0  0.000      0      0  0.000  0.000  0.022  0.000   3.22   0.00   0.00      0      0    119.3   0.00   0.00   0.59   2.27   3.94   4.00   1.39   0.32   0.00   0.00   0.00   0.00   0.00      0      0      0       0      51
 1990 280    96    93   13.0      3   1.41   1187     93      0    739   1280      0    0.0  0.000      0      0  0.000  0.000  0.022  0.000   3.19   0.00   0.00      0      0    119.1   0.00   0.00   0.61   2.27   3.95   4.00   1.39   0.33   0.00   0.00   0.00   0.00   0.00      0      0      0       0      54
 1990 281    97    94   13.0      3   1.49   1255    110      0    776   1365      0    0.0  0.000      0      0  0.000  0.000  0.022  0.144   3.16   0.00   0.00      0      0    118.9   0.00   0.00   0.62   2.13   3.84   3.96   1.40   0.38   0.00   0.00   0.00   0.00   0.00      0      0      0       0      58
 1990 282    98    95   14.0      3   1.57   1321    128      0    903   1450      0    0.0  0.000      0      0  0.000  0.000  0.022  0.056   3.14   0.00   0.00      0      0    118.6   0.00   0.00   0.63   2.09   4.00   4.00   1.65   0.63   0.01   0.00   0.00   0.00   0.00      0      0      0       0      62
 1990 283    99    96   14.0      3   1.65   1396    151      0   1009   1548      0    0.0  0.000      0      0  0.000  0.000  0.022  0.022   3.11   0.00   0.00      0      0    118.2   0.00   0.00   0.64   2.07   4.00   4.00   1.87   0.83   0.03   0.00   0.00   0.00   0.00      0      0      0       0      66
 1990 284   100    97   14.0      3   1.75   1485    182      0   1015   1667      0    0.0  0.000      0      0  0.000  0.000  0.022  0.010   3.08   0.00   0.00      0      0    117.8   0.00   0.00   0.65   2.03   3.94   3.97   1.85   0.84   0.03   0.00   0.00   0.00   0.00      0      0      0       0      71
 1990 285   101    98   14.0      3   1.82   1549    207      0   1169   1756      0    0.0  0.000      0      0  0.000  0.000  0.022  0.051   3.06   0.00   0.00      0      0    117.4   0.00   0.00   0.66   1.90   4.00   4.00   2.12   1.13   0.06   0.00   0.00   0.00   0.00      0      0      0       0      76
 1990 286   102    99   14.0      3   1.88   1607    231      0   1334   1838      0    0.0  0.000      0      0  0.000  0.000  0.022  0.039   3.04   0.00   0.00      0      0    117.0   0.00   0.00   0.66   1.83   4.00   4.00   2.47   1.48   0.11   0.00   0.00   0.00   0.00      0      0      0       0      82
 1990 287   103   100   15.0      3   1.97   1687    267      0   1473   1954      0    0.0  0.000      0      0  0.000  0.000  0.022  0.025   3.02   0.00   0.00      0      0    116.5   0.00   0.00   0.67   1.78   4.00   4.00   2.79   1.78   0.16   0.00   0.00   0.00   0.00      0      0      0       0      89
 1990 288   104   101   15.0      3   2.03   1745    295      0   1637   2040      0    0.0  0.000      0      0  0.000  0.000  0.022  0.010   3.00   0.00   0.00      0      0    116.1   0.00   0.00   0.68   1.76   4.00   4.00   3.19   2.16   0.23   0.00   0.00   0.00   0.00      0      0      0       0      96
 1990 289   105   102   15.0      3   2.06   1793    320      0   1816   2112      0    0.0  0.000      0      0  0.000  0.000  0.022  0.004   2.98   0.00   0.00      0      0    114.8   0.00   0.00   0.69   1.74   4.00   4.00   3.67   2.60   0.31   0.00   0.00   0.00   0.00      0      0      0       0     105
 1990 290   106   103   15.0      3   2.12   1857    355      0   1886   2212      0    0.0  0.000      0      0  0.000  0.000  0.022  0.004   2.97   0.00   0.00      0      0    114.4   0.00   0.00   0.70   1.73   4.00   4.00   3.85   2.78   0.35   0.00   0.00   0.00   0.00      0      0      0       0     114
 1990 291   107   104   15.0      3   2.23   1960    418      0   2005   2378      0    0.0  0.000      0      0  0.000  0.000  0.022  0.004   2.94   0.00   0.00      0      0    113.8   0.00   0.00   0.71   1.72   4.00   4.00   4.00   3.08   0.42   0.00   0.00   0.00   0.00      0      0      0       0     123
 1990 292   108   105   16.0      3   2.34   2068    489      0   2057   2557      0    0.0  0.000      0      0  0.000  0.000  0.022  0.004   2.90   0.00   0.00      0      0    113.3   0.00   0.00   0.72   1.70   4.00   4.00   4.00   3.22   0.46   0.00   0.00   0.00   0.00      0      0      0       0     133
 1990 293   109   106   16.0      3   2.45   2177    570      0   2098   2747      0    0.0  0.000      0      0  0.000  0.000  0.022  0.003   2.87   0.00   0.00      0      0    112.7   0.00   0.00   0.73   1.69   4.00   4.00   4.00   3.33   0.49   0.00   0.00   0.00   0.00      0      0      0       0     143
 1990 294   110   107   16.0      3   2.56   2281    654      0   2193   2935      0    0.0  0.000      0      0  0.000  0.000  0.022  0.002   2.84   0.00   0.00      0      0    112.1   0.00   0.00   0.75   1.69   4.00   4.00   4.00   3.62   0.58   0.00   0.00   0.00   0.00      0      0      0       0     154
 1990 295   111   108   17.0      3   2.66   2385    745      0   2332   3130      0    0.0  0.000      0      0  0.000  0.000  0.022  0.000   2.82   0.00   0.00      0      0    111.6   0.00   0.00   0.76   1.70   4.00   4.00   4.00   4.00   0.74   0.00   0.00   0.00   0.00      0      0      0       0     165
 1990 296   112   109   17.0      3   2.77   2493    849      0   2409   3342      0    0.0  0.000      0      0  0.000  0.000  0.022  0.000   2.79   0.00   0.00      0      0    111.0   0.00   0.00   0.77   1.71   4.00   4.00   4.00   4.00   0.85   0.00   0.00   0.00   0.00      0      0      0       0     176
 1990 297   113   110   17.0      3   2.86   2590    947      0   2493   3537      0    0.0  0.000      0      0  0.000  0.000  0.022  0.000   2.76   0.00   0.00      0      0    110.4   0.00   0.00   0.78   1.72   4.00   4.00   4.00   4.00   0.99   0.00   0.00   0.00   0.00      0      0      0       0     189
 1990 298   114   111   17.0      3   3.00   2738   1041      0   2494   3778      0    0.0  0.000      0      0  0.000  0.000  0.022  0.000   2.73   0.00   0.00      0      0    109.7   0.00   0.00   0.80   1.71   3.98   3.99   4.00   4.00   1.01   0.00   0.00   0.00   0.00      0      0      0       0     201
 1990 299   115   112   18.0      3   3.19   2928   1258      0   2516   4185      0    0.0  0.000      0      0  0.000  0.000  0.022  0.000   2.62   0.00   0.00      0      0    108.9   0.00   0.00   0.81   1.71   3.97   3.98   4.00   4.00   1.07   0.00   0.00   0.00   0.00      0      0      0       0     213
 1990 300   116   113   18.0      3   3.32   3064   1460      0   2523   4524      0    0.0  0.000      0      0  0.000  0.000  0.022  0.000   2.53   0.00   0.00      0      0    108.3   0.00   0.00   0.83   1.71   3.96   3.97   4.00   4.00   1.10   0.00   0.00   0.00   0.00      0      0      0       0     226
 1990 301   117   114   18.0      3   3.36   3119   1557      0   2519   4676      0    0.0  0.000      0      0  0.000  0.000  0.022  0.000   2.54   0.00   0.00      0      0    107.8   0.00   0.00   0.84   1.70   3.94   3.95   4.00   4.00   1.12   0.00   0.00   0.00   0.00      0      0      0       0     239
 1990 302   118   115   19.0      3   3.42   3190   1699      0   2518   4889      0    0.0  0.000      0      0  0.000  0.000  0.022  0.000   2.49   0.00   0.00      0      0    107.4   0.00   0.00   0.86   1.70   3.93   3.94   4.00   4.00   1.14   0.00   0.00   0.00   0.00      0      0      0       0     251
 1990 303   119   116   19.0      3   3.52   3299   1942      0   2586   5241      0    0.0  0.000      0      0  0.000  0.000  0.022  0.000   2.37   0.00   0.00      0      0    106.8   0.00   0.00   0.88   1.75   3.96   3.97   4.00   4.00   1.35   0.00   0.00   0.00   0.00      0      0      0       0     264
 1990 304   120   117   20.0      3   3.59   3376   2124      0   2702   5500      0    0.0  0.000      0      0  0.000  0.000  0.022  0.000   2.29   0.00   0.00      0      0    106.3   0.00   0.00   0.89   1.86   4.00   4.00   4.00   4.00   1.71   0.00   0.00   0.00   0.00      0      0      0       0     277
 1990 305   121   118   20.0      3   3.65   3453   2318      0   2778   5772      0    0.0  0.000      0      0  0.000  0.000  0.025  0.000   2.22   0.00   0.00      0      0    105.8   0.00   0.00   0.90   1.96   4.00   4.00   4.00   4.00   1.97   0.00   0.00   0.00   0.00      0      0      0       0     290
 1990 306   122   119   20.0      3   3.71   3527   2515      0   2825   6043      0    0.0  0.000      0      0  0.000  0.000  0.028  0.000   2.14   0.00   0.00      0      0    105.3   0.00   0.00   0.92   2.05   4.00   4.00   4.00   4.00   2.12   0.07   0.00   0.00   0.00      0      0      0       0     304
 1990 307   123   120   21.0      3   3.75   3581   2668      0   2822   6249      0    0.0  0.000      0      0  0.000  0.000  0.031  0.000   2.10   0.00   0.00      0      0    104.8   0.00   0.00   0.93   2.07   4.00   4.00   3.99   3.99   2.13   0.10   0.00   0.00   0.00      0      0      0       0     318
 1990 308   124   121   21.0      3   3.78   3626   2798      0   2925   6424      0    0.0  0.000      0      0  0.000  0.000  0.033  0.000   2.07   0.00   0.00      0      0    104.2   0.00   0.00   0.94   2.33   4.00   4.00   4.00   4.00   2.23   0.55   0.00   0.00   0.00      0      0      0       0     332
 1990 309   125   122   21.0      3   3.79   3651   2874      0   3132   6524      0    0.0  0.000      0      0  0.000  0.000  0.036  0.000   2.06   0.00   0.00      0      0    103.7   0.00   0.00   0.94   2.84   4.00   4.00   4.00   4.00   2.39   1.44   0.00   0.00   0.00      0      0      0       0     347
 1990 310   126   123   21.0      3   3.81   3689   2988      0   3209   6677      0    0.0  0.000      0      0  0.000  0.000  0.037  0.000   2.03   0.00   0.00      0      0    103.1   0.00   0.00   0.95   3.04   4.00   4.00   4.00   4.00   2.45   1.81   0.00   0.00   0.00      0      0      0       0     363
 1990 311   127   124   21.0      3   3.84   3743   3147      0   3314   6890      0    0.0  0.000      0      0  0.000  0.000  0.037  0.000   1.99   0.00   0.00      0      0    102.6   0.00   0.00   0.96   3.31   4.00   4.00   4.00   4.00   2.53   2.31   0.00   0.00   0.00      0      0      0       0     379
 1990 312   128   125   21.0      3   3.86   3778   3251      0   3309   7029      0    0.0  0.000      0      0  0.000  0.000  0.038  0.000   1.96   0.00   0.00      0      0    102.0   0.00   0.00   0.97   3.32   4.00   4.00   3.99   3.99   2.52   2.34   0.00   0.00   0.00      0      0      0       0     395
 1990 313   129   126   21.0      3   3.89   3833   3412      0   3342   7245      0    0.0  0.000      0      0  0.000  0.000  0.040  0.000   1.92   0.00   0.00      0      0    101.4   0.00   0.00   0.98   3.42   4.00   4.00   4.00   4.00   2.55   2.52   0.00   0.00   0.00      0      0      0       0     412
 1990 314   130   127   21.0      3   3.92   3891   3582      0   3417   7472      0    0.0  0.000      0      0  0.000  0.000  0.040  0.000   1.87   0.00   0.00      0      0    100.9   0.00   0.00   0.99   3.63   4.00   4.00   4.00   4.00   2.60   2.86   0.00   0.00   0.00      0      0      0       0     429
 1990 315   131   128   21.0      3   3.97   3958   3778      0   3497   7737      0    0.0  0.000      0      0  0.000  0.000  0.042  0.000   1.82   0.00   0.00      0      0    100.2   0.00   0.00   1.00   3.86   4.00   4.00   4.00   4.00   2.67   3.20   0.00   0.00   0.00      0      0      0       0     446
 1990 316   132   129   21.0      3   4.00   4012   3936      0   3491   7949      0    0.0  0.000      0      0  0.000  0.000  0.045  0.000   1.78   0.00   0.00      0      0     99.6   0.00   0.00   1.01   3.87   4.00   4.00   3.99   3.99   2.66   3.22   0.00   0.00   0.00      0      0      0       0     463
 1990 317   133   130   21.0      4   3.97   3971   3380      0   3555   8262      0    0.0  0.000    910      0  0.000  0.000  0.047  0.000   1.93   0.00   0.11      0    910    100.0   0.00   0.00   1.03   4.00   4.00   4.00   4.00   4.00   2.72   3.47   0.00   0.00   0.00      0      0      0       0     481
 1990 318   134   131   21.0      4   3.95   3926   3461      0   3550   8501      0    0.0  0.000   1113      0  0.000  0.000  0.046  0.000   1.93   0.00   0.13      0   1113    100.6   0.00   0.00   1.05   4.00   4.00   4.00   3.99   3.99   2.72   3.48   0.00   0.00   0.00      0      0      0       0     498
 1990 319   135   132   21.0      4   3.93   3879   3506      0   3539   8609      0    0.0  0.000   1224      0  0.000  0.000  0.032  0.000   1.94   0.00   0.14      0   1224    101.4   0.00   0.00   1.06   4.00   4.00   4.00   3.98   3.98   2.71   3.48   0.00   0.00   0.00      0      0      0       0     516
 1990 320   136   133   21.0      4   3.92   3830   3558      0   3603   8742      0    0.0  0.000   1354      0  0.000  0.000  0.030  0.000   1.95   0.00   0.15      0   1354    102.3   0.00   0.00   1.07   4.00   4.00   4.00   4.00   4.00   2.78   3.60   0.00   0.00   0.00      0      0      0       0     534
 1990 321   137   134   21.0      4   3.91   3779   3613      0   3771   8885      0    0.0  0.000   1493      0  0.000  0.000  0.028  0.000   1.95   0.00   0.17      0   1493    103.4   0.00   0.00   1.08   4.00   4.00   4.00   4.00   4.00   2.97   3.77   0.00   0.00   0.00      0      0      0       0     552
 1990 322   138   135   21.0      4   3.89   3725   3700      0   3874   9135      0    0.0  0.000   1710      0  0.000  0.000  0.026  0.007   1.95   0.00   0.19      0   1710    104.5   0.00   0.00   1.09   4.00   4.00   4.00   4.00   4.00   3.09   3.86   0.00   0.00   0.00      0      0      0       0     571
 1990 323   139   136   21.0      4   3.88   3667   3814      0   3924   9475      0    0.0  0.000   1995      0  0.000  0.000  0.023  0.000   1.94   0.00   0.21      0   1995    105.9   0.00   0.00   1.11   4.00   4.00   4.00   4.00   4.00   3.14   3.88   0.08   0.00   0.00      0      0      0       0     590
 1990 324   140   137   21.0      4   3.87   3605   3878      0   3914   9637      0    0.0  0.000   2154      0  0.000  0.000  0.022  0.000   1.95   0.00   0.22      0   2154    107.4   0.00   0.00   1.12   4.00   4.00   4.00   3.99   3.99   3.13   3.87   0.10   0.00   0.00      0      0      0       0     610
 1990 325   141   138   21.0      4   3.86   3541   3969      0   4038   9893      0    0.0  0.000   2383      0  0.000  0.000  0.022  0.000   1.94   0.00   0.24      0   2383    109.0   0.00   0.00   1.13   4.00   4.00   4.00   4.00   4.00   3.25   3.95   0.37   0.00   0.00      0      0      0       0     629
 1990 326   142   139   21.0      4   3.85   3474   4049      0   4157  10104      0    0.0  0.000   2582      0  0.000  0.000  0.022  0.000   1.94   0.00   0.26      0   2582    110.8   0.00   0.00   1.14   4.00   4.00   4.00   4.00   4.00   3.36   4.00   0.66   0.00   0.00      0      0      0       0     649
 1990 327   143   140   21.0      4   3.84   3404   4126      0   4297  10304      0    0.0  0.000   2774      0  0.000  0.000  0.022  0.000   1.94   0.00   0.27      0   2774    112.8   0.00   0.00   1.15   4.00   4.00   4.00   4.00   4.00   3.49   4.00   1.02   0.00   0.00      0      0      0       0     670
 1990 328   144   141   21.0      4   3.83   3331   4212      0   4378  10532      0    0.0  0.000   2989      0  0.000  0.000  0.022  0.000   1.92   0.00   0.28      0   2989    114.9   0.00   0.00   1.16   4.00   4.00   4.00   4.00   4.00   3.56   4.00   1.25   0.00   0.00      0      0      0       0     692
 1990 329   145   142   21.0      5   3.83   3331   4212    286   4386  10818   3810    7.5  0.026   3275      7  0.000  0.000  0.000  0.000   1.86   8.73   0.30      0   3275    114.9   0.00   0.00   1.17   4.00   4.00   4.00   4.00   4.00   3.57   4.00   1.31   0.00   0.00      0      0      0       0     714
 1990 330   146   143   21.0      5   3.83   3331   4212    522   4421  11053   3810   13.7  0.047   3510      7  0.000  0.000  0.000  0.000   1.81  14.86   0.32      0   3510    114.9   0.00   0.00   1.18   4.00   4.00   4.00   4.00   4.00   3.60   4.00   1.44   0.00   0.00      0      0      0       0     736
 1990 331   147   144   21.0      5   3.83   3331   4212    647   4522  11179   3810   17.0  0.058   3636      7  0.000  0.000  0.000  0.000   1.79  17.79   0.33      0   3636    114.9   0.00   0.00   1.18   4.00   4.00   4.00   4.00   4.00   3.69   4.00   1.69   0.00   0.00      0      0      0       0     758
 1990 332   148   145   21.0      5   3.83   3331   4212    800   4617  11332   3810   21.0  0.071   3789      7  0.000  0.000  0.000  0.000   1.76  21.12   0.33      0   3789    114.9   0.00   0.00   1.19   4.00   4.00   4.00   4.00   4.00   3.78   4.00   1.93   0.00   0.00      0      0      0       0     780
 1990 333   149   146   21.0      5   3.83   3331   4212   1020   4696  11552   3810   26.8  0.088   4009      7  0.000  0.000  0.000  0.000   1.71  25.44   0.35      0   4009    114.9   0.00   0.00   1.20   4.00   4.00   4.00   4.00   4.00   3.86   4.00   2.11   0.00   0.00      0      0      0       0     803
 1990 334   150   147   21.0      5   3.83   3331   4212   1267   4686  11799   3810   33.3  0.107   4256      7  0.000  0.000  0.000  0.000   1.66  29.77   0.36      0   4256    114.9   0.00   0.00   1.21   4.00   4.00   4.00   4.00   3.99   3.85   3.99   2.12   0.00   0.00      0      0      0       0     827
 1990 335   151   148   21.0      5   3.83   3331   4212   1508   4720  12040   3810   39.6  0.125   4497      7  0.000  0.000  0.001  0.000   1.61  33.53   0.37      0   4497    114.9   0.00   0.00   1.21   4.00   4.00   4.00   4.00   4.00   3.89   4.00   2.21   0.00   0.00      0      0      0       0     850
 1990 336   152   149   21.0      5   3.82   3331   4192   1707   4697  12220   3810   44.8  0.140   4696      7  0.000  0.000  0.010  0.000   1.58  36.36   0.38      0   4696    114.8   0.00   0.00   1.21   4.00   4.00   4.00   4.00   4.00   3.89   4.00   2.21   0.00   0.00      0      0      0       0     874
 1990 337   153   150   21.0      5   3.82   3331   4212   1869   4782  12401   3810   49.1  0.151   4858      7  0.000  0.000  0.017  0.000   1.55  38.47   0.39      0   4858    114.5   0.00   0.00   1.22   4.00   4.00   4.00   4.00   4.00   3.98   4.00   2.32   0.00   0.00      0      0      0       0     897
 1990 338   154   151   21.0      5   3.81   3331   4212   2079   4848  12611   3810   54.6  0.165   5068      7  0.000  0.000  0.019  0.000   1.51  41.03   0.40      0   5068    114.3   0.00   0.00   1.23   4.00   4.00   4.00   4.00   4.00   4.00   4.00   2.39   0.00   0.00      0      0      0       0     921
 1990 339   155   152   21.0      5   3.80   3331   4212   2365   4836  12897   3810   62.1  0.183   5354      7  0.000  0.000  0.023  0.000   1.45  44.17   0.42      0   5354    113.9   0.00   0.00   1.24   4.00   4.00   4.00   4.00   3.99   3.99   3.99   2.38   0.00   0.00      0      0      0       0     945
 1990 340   156   153   21.0      5   3.78   3331   4212   2629   4827  13160   3810   69.0  0.200   5617      7  0.000  0.000  0.034  0.000   1.40  46.79   0.43      0   5617    113.5   0.00   0.00   1.25   4.00   4.00   4.00   4.00   3.99   3.99   3.98   2.38   0.00   0.00      0      0      0       0     970
 1990 341   157   154   21.0      5   3.76   3331   4212   2870   4873  13402   3810   75.3  0.214   5859      7  0.000  0.000  0.045  0.000   1.36  48.99   0.44      0   5859    112.8   0.00   0.00   1.25   4.00   4.00   4.00   4.00   4.00   4.00   4.00   2.39   0.00   0.00      0      0      0       0     994
 1990 342   158   155   21.0      5   3.73   3331   4212   3063   4944  13595   3810   80.4  0.225   6052      7  0.000  0.000  0.055  0.059   1.33  50.61   0.45      0   6052    112.0   0.00   0.00   1.25   4.00   4.00   4.00   4.00   4.00   4.00   4.00   2.42   0.00   0.00      0      0      0       0    1018
 1990 343   159   156   21.0      5   3.70   3331   4212   3220   4923  13752   3810   84.5  0.234   6209      7  0.000  0.000  0.063  0.086   1.30  51.86   0.45      0   6209    111.2   0.00   0.00   1.25   3.99   3.99   3.99   3.98   3.98   3.98   3.98   2.41   0.00   0.00      0      0      0       0    1043
 1990 344   160   157   21.0      5   3.67   3331   4209   3394   4898  13923   3810   89.1  0.244   6383      7  0.000  0.000  0.066  0.357   1.27  53.17   0.46      0   6383    110.2   0.00   0.00   1.25   3.99   3.99   3.99   3.98   3.98   3.98   3.98   2.41   0.00   0.00      0      0      0       0    1067
 1990 345   161   158   21.0      5   3.64   3331   4212   3618   4933  14150   3810   95.0  0.256   6607      7  0.000  0.000  0.072  0.208   1.23  54.76   0.47      0   6607    109.3   0.00   0.00   1.25   4.00   4.00   4.00   4.00   3.99   3.97   3.95   2.39   0.00   0.00      0      0      0       0    1092
 1990 346   162   159   21.0      5   3.60   3331   4212   3759   4941  14291   3810   98.7  0.263   6748      7  0.000  0.000  0.083  0.126   1.21  55.70   0.47      0   6748    108.1   0.00   0.00   1.25   4.00   4.00   4.00   4.00   4.00   3.99   3.96   2.39   0.00   0.00      0      0      0       0    1117
 1990 347   163   160   21.0      5   3.56   3331   4212   3967   4951  14499   3810  104.1  0.274   6956      7  0.000  0.000  0.086  0.050   1.18  57.03   0.48      0   6956    107.0   0.00   0.00   1.25   4.00   4.00   4.00   4.00   4.00   4.00   3.97   2.39   0.00   0.00      0      0      0       0    1141
 1990 348   164   161   21.0      5   3.52   3331   4212   4104   5025  14636   3810  107.7  0.280   7093      7  0.000  0.000  0.095  0.005   1.16  57.86   0.48      0   7093    105.7   0.00   0.00   1.25   4.00   4.00   4.00   4.00   4.00   4.00   4.00   2.42   0.00   0.00      0      0      0       0    1166
 1990 349   165   162   21.0      5   3.48   3331   4212   4311   5091  14842   3810  113.1  0.290   7299      7  0.000  0.000  0.097  0.000   1.13  59.05   0.49      0   7299    104.4   0.00   0.00   1.25   4.00   4.00   4.00   4.00   4.00   4.00   4.00   2.44   0.00   0.00      0      0      0       0    1191
 1990 350   166   163   21.0      5   3.43   3331   4212   4583   5126  15115   3810  120.3  0.303   7572      7  0.000  0.000  0.103  0.000   1.09  60.53   0.50      0   7572    103.1   0.00   0.00   1.25   4.00   4.00   4.00   4.00   4.00   4.00   4.00   2.45   0.00   0.00      0      0      0       0    1217
 1990 351   167   164   21.0      5   3.39   3331   4180   4869   5100  15370   3810  127.8  0.317   7858      7  0.000  0.000  0.113  0.000   1.05  61.96   0.51      0   7858    101.6   0.00   0.00   1.25   4.00   4.00   4.00   4.00   4.00   4.00   4.00   2.45   0.00   0.00      0      0      0       0    1242
 1990 352   168   165   21.0      5   3.33   3331   4212   5131   5129  15662   3810  134.7  0.328   8119      7  0.000  0.000  0.125  0.000   1.01  63.19   0.52      0   8119    100.0   0.00   0.00   1.25   4.00   4.00   4.00   4.00   4.00   4.00   4.00   2.46   0.00   0.00      0      0      0       0    1268
 1990 353   169   166   21.0      5   3.28   3331   4212   5358   5181  15890   3810  140.6  0.337   8347      7  0.000  0.000  0.135  0.000   0.98  64.19   0.53      0   8347     98.3   0.00   0.00   1.25   4.00   4.00   4.00   4.00   4.00   4.00   4.00   2.48   0.00   0.00      0      0      0       0    1293
 1990 354   170   167   21.0      5   3.22   3331   4212   5599   5228  16131   3810  147.0  0.347   8588      7  0.000  0.000  0.147  0.020   0.95  65.20   0.53      0   8588     96.5   0.00   0.00   1.25   4.00   4.00   4.00   4.00   4.00   4.00   4.00   2.50   0.00   0.00      0      0      0       0    1319
 1990 355   171   168   21.0      5   3.15   3331   4212   5884   5237  16416   3810  154.5  0.358   8873      7  0.000  0.000  0.155  0.001   0.91  66.32   0.54      0   8873     94.7   0.00   0.00   1.25   4.00   4.00   4.00   4.00   4.00   4.00   4.00   2.50   0.00   0.00      0      0      0       0    1345
 1990 356   172   169   21.0      5   3.09   3331   4093   6167   5211  16580   3810  161.9  0.372   9156      7  0.000  0.000  0.166  0.075   0.89  67.35   0.55      0   9156     92.7   0.00   0.00   1.25   4.00   4.00   4.00   4.00   4.00   4.00   4.00   2.50   0.00   0.00      0      0      0       0    1372
 1990 357   173   170   21.0      5   3.02   3331   4107   6452   5191  16879   3810  169.4  0.382   9441      7  0.000  0.000  0.178  0.048   0.85  68.34   0.56      0   9441     90.6   0.00   0.00   1.25   4.00   4.00   4.00   3.99   3.99   3.99   3.98   2.49   0.00   0.00      0      0      0       0    1398
 1990 358   174   171   21.0      5   2.95   3331   4087   6679   5165  17087   3810  175.3  0.391   9668      7  0.000  0.000  0.186  0.338   0.82  69.08   0.57      0   9668     88.5   0.00   0.00   1.25   4.00   4.00   4.00   3.99   3.99   3.99   3.98   2.49   0.00   0.00      0      0      0       0    1424
 1990 359   175   172   21.0      5   2.88   3331   4211   6888   5201  17419   3810  180.8  0.395   9877      7  0.000  0.000  0.197  0.152   0.79  69.74   0.57      0   9877     86.4   0.00   0.00   1.25   4.00   4.00   4.00   4.00   4.00   4.00   4.00   2.50   0.00   0.00      0      0      0       0    1449
 1990 360   176   173   21.0      5   2.80   3331   4212   7174   5223  17706   3810  188.3  0.405  10163      7  0.000  0.000  0.209  0.048   0.76  70.59   0.57      0  10163     84.2   0.00   0.00   1.25   4.00   4.00   4.00   4.00   4.00   4.00   4.00   2.51   0.00   0.00      0      0      0       0    1476
 1990 361   177   174   21.0      5   2.73   3331   4212   7459   5237  17991   3810  195.8  0.415  10448      7  0.000  0.000  0.261  0.006   0.73  71.39   0.58      0  10448     81.8   0.00   0.00   1.25   4.00   4.00   4.00   4.00   4.00   4.00   4.00   2.51   0.00   0.00      0      0      0       0    1502
 1990 362   178   175   21.0      5   2.65   3331   4212   7621   5275  18153   3810  200.0  0.420  10610      7  0.000  0.000  0.300  0.000   0.72  71.83   0.58      0  10610     79.5   0.00   0.00   1.25   4.00   4.00   4.00   4.00   4.00   4.00   4.00   2.52   0.00   0.00      0      0      0       0    1528
 1990 363   179   176   21.0      5   2.57   3331   4212   7764   5309  18296   3810  203.8  0.424  10753      7  0.000  0.000  0.308  0.000   0.72  72.20   0.59      0  10753     77.1   0.00   0.00   1.25   4.00   4.00   4.00   4.00   4.00   4.00   4.00   2.53   0.00   0.00      0      0      0       0    1554
 1990 364   180   177   21.0      5   2.49   3331   4212   7975   5329  18507   3810  209.3  0.431  10964      7  0.000  0.000  0.312  0.000   0.70  72.74   0.59      0  10964     74.8   0.00   0.00   1.25   4.00   4.00   4.00   4.00   4.00   4.00   4.00   2.54   0.00   0.00      0      0      0       0    1581
 1990 365   181   178   21.0      5   2.42   3331   4212   8252   5331  18783   3810  216.6  0.439  11241      7  0.000  0.000  0.330  0.000   0.67  73.41   0.60      0  11241     72.6   0.00   0.00   1.25   4.00   4.00   4.00   4.00   4.00   4.00   4.00   2.54   0.00   0.00      0      0      0       0    1607
 1991 001   182   179   21.0      5   2.34   3331   4211   8537   5304  19069   3810  224.1  0.448  11526      7  0.000  0.000  0.362  0.000   0.65  74.07   0.60      0  11526     70.2   0.00   0.00   1.25   4.00   4.00   4.00   4.00   4.00   4.00   4.00   2.54   0.00   0.00      0      0      0       0    1634
 1991 002   183   180   21.0      5   2.26   3331   4191   8823   5278  19334   3810  231.6  0.456  11812      7  0.000  0.000  0.395  0.000   0.63  74.70   0.61      0  11812     67.9   0.00   0.00   1.25   4.00   4.00   4.00   4.00   4.00   4.00   4.00   2.54   0.00   0.00      0      0      0       0    1661
 1991 003   184   181   21.0      5   2.18   3331   4179   9109   5251  19608   3810  239.1  0.465  12098      7  0.000  0.000  0.430  0.000   0.61  75.29   0.62      0  12098     65.6   0.00   0.00   1.25   4.00   4.00   4.00   4.00   4.00   4.00   4.00   2.54   0.00   0.00      0      0      0       0    1687
 1991 004   185   182   21.0      5   2.11   3331   4204   9360   5238  19884   3810  245.7  0.471  12349      7  0.000  0.000  0.461  0.000   0.59  75.80   0.62      0  12349     63.2   0.00   0.00   1.25   4.00   4.00   4.00   4.00   4.00   3.99   3.99   2.53   0.00   0.00      0      0      0       0    1713
 1991 005   186   183   21.0      5   2.03   3331   4212   9611   5220  20142   3810  252.3  0.477  12600      7  0.000  0.000  0.484  0.000   0.58  76.28   0.63      0  12600     60.9   0.00   0.00   1.25   4.00   4.00   4.00   3.99   3.99   3.98   3.97   2.52   0.00   0.00      0      0      0       0    1739
 1991 006   187   184   21.0      5   1.95   3331   4211   9875   5194  20406   3810  259.2  0.484  12864      7  0.000  0.000  0.514  0.000   0.56  76.77   0.63      0  12864     58.6   0.00   0.00   1.25   4.00   4.00   4.00   3.99   3.99   3.98   3.97   2.52   0.00   0.00      0      0      0       0    1765
 1991 007   188   185   21.0      5   1.95   3331   4211   9875   5194  20406   3810  259.2  0.484  12864      7  0.000  0.000  0.514  0.000   0.56  76.77   0.63      0  12864     58.6   0.00   0.00   1.25   4.00   4.00   4.00   3.99   3.99   3.98   3.97   2.52   0.00   0.00      0      0      0       0    1765
 1991 008   189   186   21.0      5   1.95   3331   4211   9875   5194  20406   3810  259.2  0.484  12864      7  0.000  0.000  0.514  0.000   0.56  76.77   0.63      0  12864     58.6   0.00   0.00   1.25   4.00   4.00   4.00   3.99   3.99   3.98   3.97   2.52   0.00   0.00      0      0      0       0    1765
 1991 009   190   187   21.0      5   1.95   3331   4211   9875   5194  20406   3810  259.2  0.484  12864      7  0.000  0.000  0.514  0.000   0.56  76.77   0.63      0  12864     58.6   0.00   0.00   1.25   4.00   4.00   4.00   3.99   3.99   3.98   3.97   2.52   0.00   0.00      0      0      0       0    1765

*DSSAT Cropping System Model Ver. 4.0.2.000               Jul 19, 2016; 16:44:49

*RUN   2        : UYMZ                    
 MODEL          : MZCER040 - Maize           
 EXPERIMENT     : UYMZ0040 MZ    late to create DSS                             
 TREATMENT  1   : UYMZ                    

@YEAR DOY   DAS   DAP   L#SD   GSTD   LAID   LWAD   SWAD   GWAD   RWAD   CWAD   G#AD   GWGD   HIAD   PWAD   P#AD   WSPD   WSGD   NSTD   EWSD   LN%D   SH%D   HIPD   PWDD   PWTD     SLAD   CHTD   CWID   RDPD   RL1D   RL2D   RL3D   RL4D   RL5D   RL6D   RL7D   RL8D   RL9D   RL10   CDAD   LDAD   SDAD   SNW0C   SNW1C
 1991 187     3     0    0.0      0   0.00      0      0      0      0      0      0    0.0  0.000      0      0  0.000  0.000  0.000  0.000   0.00   0.00   0.00      0      0      0.0   0.00   0.00   0.03   0.00   0.00   0.00   0.00   0.00   0.00   0.00   0.00   0.00   0.00      0      0      0       0       0
 1991 188     4     1    0.0      0   0.00      0      0      0      0      0      0    0.0  0.000      0      0  0.000  0.000  0.000  0.000   0.00   0.00   0.00      0      0      0.0   0.00   0.00   0.03   0.00   0.00   0.00   0.00   0.00   0.00   0.00   0.00   0.00   0.00      0      0      0       0       0
 1991 189     5     2    0.0      0   0.00      0      0      0      0      0      0    0.0  0.000      0      0  0.000  0.000  0.000  0.000   0.00   0.00   0.00      0      0      0.0   0.00   0.00   0.03   0.00   0.00   0.00   0.00   0.00   0.00   0.00   0.00   0.00   0.00      0      0      0       0       0
 1991 190     6     3    0.0      0   0.00      0      0      0      0      0      0    0.0  0.000      0      0  0.000  0.000  0.000  0.000   0.00   0.00   0.00      0      0      0.0   0.00   0.00   0.03   0.00   0.00   0.00   0.00   0.00   0.00   0.00   0.00   0.00   0.00      0      0      0       0       0
 1991 191     7     4    0.0      0   0.00      0      0      0      0      0      0    0.0  0.000      0      0  0.000  0.000  0.000  0.000   0.00   0.00   0.00      0      0      0.0   0.00   0.00   0.03   0.00   0.00   0.00   0.00   0.00   0.00   0.00   0.00   0.00   0.00      0      0      0       0       0
 1991 192     8     5    0.0      0   0.00      0      0      0      0      0      0    0.0  0.000      0      0  0.000  0.000  0.000  0.000   0.00   0.00   0.00      0      0      0.0   0.00   0.00   0.03   0.00   0.00   0.00   0.00   0.00   0.00   0.00   0.00   0.00   0.00      0      0      0       0       0
 1991 193     9     6    0.0      0   0.00      0      0      0      0      0      0    0.0  0.000      0      0  0.000  0.000  0.000  0.000   0.00   0.00   0.00      0      0      0.0   0.00   0.00   0.03   0.00   0.00   0.00   0.00   0.00   0.00   0.00   0.00   0.00   0.00      0      0      0       0       0
 1991 194    10     7    0.0      0   0.00      0      0      0      0      0      0    0.0  0.000      0      0  0.000  0.000  0.000  0.000   0.00   0.00   0.00      0      0      0.0   0.00   0.00   0.03   0.00   0.00   0.00   0.00   0.00   0.00   0.00   0.00   0.00   0.00      0      0      0       0       0
 1991 195    11     8    0.0      0   0.00      0      0      0      0      0      0    0.0  0.000      0      0  0.000  0.000  0.000  0.000   0.00   0.00   0.00      0      0      0.0   0.00   0.00   0.03   0.00   0.00   0.00   0.00   0.00   0.00   0.00   0.00   0.00   0.00      0      0      0       0       0
 1991 196    12     9    0.0      0   0.00      0      0      0      0      0      0    0.0  0.000      0      0  0.000  0.000  0.000  0.000   0.00   0.00   0.00      0      0      0.0   0.00   0.00   0.03   0.00   0.00   0.00   0.00   0.00   0.00   0.00   0.00   0.00   0.00      0      0      0       0       0
 1991 197    13    10    0.0      0   0.00      0      0      0      0      0      0    0.0  0.000      0      0  0.000  0.000  0.000  0.000   0.00   0.00   0.00      0      0      0.0   0.00   0.00   0.03   0.00   0.00   0.00   0.00   0.00   0.00   0.00   0.00   0.00   0.00      0      0      0       0       0
 1991 198    14    11    0.0      0   0.00      0      0      0      0      0      0    0.0  0.000      0      0  0.000  0.000  0.000  0.000   0.00   0.00   0.00      0      0      0.0   0.00   0.00   0.04   0.00   0.00   0.00   0.00   0.00   0.00   0.00   0.00   0.00   0.00      0      0      0       0       0
 1991 199    15    12    0.0      0   0.00      0      0      0      0      0      0    0.0  0.000      0      0  0.000  0.000  0.000  0.000   0.00   0.00   0.00      0      0      0.0   0.00   0.00   0.05   0.00   0.00   0.00   0.00   0.00   0.00   0.00   0.00   0.00   0.00      0      0      0       0       0
 1991 200    16    13    0.0      0   0.00      0      0      0      0      0      0    0.0  0.000      0      0  0.000  0.000  0.000  0.000   0.00   0.00   0.00      0      0      0.0   0.00   0.00   0.06   0.00   0.00   0.00   0.00   0.00   0.00   0.00   0.00   0.00   0.00      0      0      0       0       0
 1991 201    17    14    0.0      0   0.00      0      0      0      0      0      0    0.0  0.000      0      0  0.000  0.000  0.000  0.000   0.00   0.00   0.00      0      0      0.0   0.00   0.00   0.07   0.00   0.00   0.00   0.00   0.00   0.00   0.00   0.00   0.00   0.00      0      0      0       0       0
 1991 202    18    15    0.0      0   0.00      0      0      0      0      0      0    0.0  0.000      0      0  0.000  0.000  0.000  0.000   0.00   0.00   0.00      0      0      0.0   0.00   0.00   0.07   0.00   0.00   0.00   0.00   0.00   0.00   0.00   0.00   0.00   0.00      0      0      0       0       0
 1991 203    19    16    0.0      0   0.00      0      0      0      0      0      0    0.0  0.000      0      0  0.000  0.000  0.000  0.000   0.00   0.00   0.00      0      0      0.0   0.00   0.00   0.07   0.00   0.00   0.00   0.00   0.00   0.00   0.00   0.00   0.00   0.00      0      0      0       0       0
 1991 204    20    17    0.0      0   0.00      0      0      0      0      0      0    0.0  0.000      0      0  0.000  0.000  0.000  0.000   0.00   0.00   0.00      0      0      0.0   0.00   0.00   0.08   0.00   0.00   0.00   0.00   0.00   0.00   0.00   0.00   0.00   0.00      0      0      0       0       0
 1991 205    21    18    0.0      0   0.00      0      0      0      0      0      0    0.0  0.000      0      0  0.000  0.000  0.000  0.000   0.00   0.00   0.00      0      0      0.0   0.00   0.00   0.08   0.00   0.00   0.00   0.00   0.00   0.00   0.00   0.00   0.00   0.00      0      0      0       0       0
 1991 206    22    19    0.0      0   0.00      0      0      0      0      0      0    0.0  0.000      0      0  0.000  0.000  0.000  0.000   0.00   0.00   0.00      0      0      0.0   0.00   0.00   0.08   0.00   0.00   0.00   0.00   0.00   0.00   0.00   0.00   0.00   0.00      0      0      0       0       0
 1991 207    23    20    0.0      0   0.00      0      0      0      0      0      0    0.0  0.000      0      0  0.000  0.000  0.000  0.000   0.00   0.00   0.00      0      0      0.0   0.00   0.00   0.10   0.00   0.00   0.00   0.00   0.00   0.00   0.00   0.00   0.00   0.00      0      0      0       0       0
 1991 208    24    21    0.0      0   0.00      0      0      0      0      0      0    0.0  0.000      0      0  0.000  0.000  0.000  0.000   0.00   0.00   0.00      0      0      0.0   0.00   0.00   0.11   0.00   0.00   0.00   0.00   0.00   0.00   0.00   0.00   0.00   0.00      0      0      0       0       0
 1991 209    25    22    1.0      1   0.00     14     14      0     14     28      0    0.0  0.000      0      0  0.000  0.000  0.012  0.000   4.40   0.00   0.00      0      0     23.9   0.00   0.00   0.13   0.28   0.09   0.00   0.00   0.00   0.00   0.00   0.00   0.00   0.00      0      0      0       0       0
 1991 210    26    23    2.0      1   0.01     14     14      0     14     28      0    0.0  0.000      0      0  0.000  0.000  0.013  0.000   4.51   0.00   0.00      0      0     46.3   0.00   0.00   0.14   0.28   0.09   0.00   0.00   0.00   0.00   0.00   0.00   0.00   0.00      0      0      0       0       0
 1991 211    27    24    2.0      1   0.01     14     14      0     14     28      0    0.0  0.000      0      0  0.000  0.000  0.000  0.000   4.51   0.00   0.00      0      0     58.0   0.00   0.00   0.15   0.28   0.10   0.00   0.00   0.00   0.00   0.00   0.00   0.00   0.00      0      0      0       0       0
 1991 212    28    25    2.0      1   0.01     14     14      0     15     28      0    0.0  0.000      0      0  0.000  0.000  0.000  0.000   4.49   0.00   0.00      0      0     63.1   0.00   0.00   0.15   0.26   0.10   0.00   0.00   0.00   0.00   0.00   0.00   0.00   0.00      0      0      0       0       0
 1991 213    29    26    2.0      1   0.01     14     14      0     15     28      0    0.0  0.000      0      0  0.000  0.000  0.000  0.000   4.49   0.00   0.00      0      0     44.0   0.00   0.00   0.15   0.26   0.10   0.00   0.00   0.00   0.00   0.00   0.00   0.00   0.00      0      0      0       0       0
 1991 214    30    27    2.0      1   0.00     14     14      0     15     28      0    0.0  0.000      0      0  0.000  0.000  0.000  0.000   4.49   0.00   0.00      0      0     17.2   0.00   0.00   0.15   0.26   0.10   0.00   0.00   0.00   0.00   0.00   0.00   0.00   0.00      0      0      0       0       0
 1991 215    31    28    2.0      1   0.00     14     14      0     15     28      0    0.0  0.000      0      0  0.000  0.000  0.000  0.000   4.49   0.00   0.00      0      0      9.3   0.00   0.00   0.15   0.24   0.10   0.00   0.00   0.00   0.00   0.00   0.00   0.00   0.00      0      0      0       0       0
 1991 216    32    29    2.0      1   0.00     14     14      0     15     28      0    0.0  0.000      0      0  0.000  0.000  0.000  0.000   4.49   0.00   0.00      0      0      9.3   0.00   0.00   0.15   0.22   0.09   0.00   0.00   0.00   0.00   0.00   0.00   0.00   0.00      0      0      0       0       0
 1991 217    33    30    2.0      1   0.00     14     14      0     15     28      0    0.0  0.000      0      0  0.000  0.000  0.000  0.184   4.49   0.00   0.00      0      0     12.3   0.00   0.00   0.15   0.21   0.09   0.00   0.00   0.00   0.00   0.00   0.00   0.00   0.00      0      0      0       0       0
 1991 218    34    31    2.0      1   0.00     14     14      0     15     28      0    0.0  0.000      0      0  0.000  0.000  0.000  0.000   4.49   0.00   0.00      0      0     10.3   0.00   0.00   0.15   0.21   0.08   0.00   0.00   0.00   0.00   0.00   0.00   0.00   0.00      0      0      0       0       0
 1991 219    35    32    2.0      1   0.00     14     14      0     15     28      0    0.0  0.000      0      0  0.000  0.000  0.000  0.000   4.49   0.00   0.00      0      0     11.4   0.00   0.00   0.15   0.20   0.08   0.00   0.00   0.00   0.00   0.00   0.00   0.00   0.00      0      0      0       0       0
 1991 220    36    33    3.0      1   0.00     14     14      0     15     28      0    0.0  0.000      0      0  0.000  0.000  0.000  0.000   4.49   0.00   0.00      0      0     20.2   0.00   0.00   0.16   0.20   0.08   0.00   0.00   0.00   0.00   0.00   0.00   0.00   0.00      0      0      0       0       0
 1991 221    37    34    3.0      1   0.00     14     14      0     15     28      0    0.0  0.000      0      0  0.000  0.000  0.000  0.000   4.49   0.00   0.00      0      0     30.6   0.00   0.00   0.16   0.19   0.08   0.00   0.00   0.00   0.00   0.00   0.00   0.00   0.00      0      0      0       0       0
 1991 222    38    35    3.0      1   0.00     14     14      0     15     28      0    0.0  0.000      0      0  0.000  0.000  0.000  0.000   4.49   0.00   0.00      0      0     34.8   0.00   0.00   0.16   0.19   0.08   0.00   0.00   0.00   0.00   0.00   0.00   0.00   0.00      0      0      0       0       0
 1991 223    39    36    3.0      1   0.01     14     14      0     15     28      0    0.0  0.000      0      0  0.000  0.000  0.000  0.000   4.49   0.00   0.00      0      0     37.8   0.00   0.00   0.17   0.19   0.08   0.00   0.00   0.00   0.00   0.00   0.00   0.00   0.00      0      0      0       0       0
 1991 224    40    37    3.0      1   0.00     14     14      0     15     28      0    0.0  0.000      0      0  0.000  0.000  0.000  0.000   4.49   0.00   0.00      0      0     33.4   0.00   0.00   0.17   0.19   0.09   0.00   0.00   0.00   0.00   0.00   0.00   0.00   0.00      0      0      0       0       0
 1991 225    41    38    3.0      1   0.01     14     14      0     16     28      0    0.0  0.000      0      0  0.000  0.000  0.000  0.000   4.49   0.00   0.00      0      0     45.3   0.00   0.00   0.17   0.19   0.09   0.00   0.00   0.00   0.00   0.00   0.00   0.00   0.00      0      0      0       0       0
 1991 226    42    39    3.0      1   0.01     14     14      0     16     28      0    0.0  0.000      0      0  0.000  0.000  0.000  0.000   4.49   0.00   0.00      0      0     71.9   0.00   0.00   0.18   0.19   0.10   0.01   0.00   0.00   0.00   0.00   0.00   0.00   0.00      0      0      0       0       0
 1991 227    43    40    4.0      1   0.02     14     14      0     17     28      0    0.0  0.000      0      0  0.000  0.000  0.000  0.000   4.49   0.00   0.00      0      0    176.1   0.00   0.00   0.20   0.19   0.11   0.01   0.00   0.00   0.00   0.00   0.00   0.00   0.00      0      0      0       0       0
 1991 228    44    41    4.0      1   0.04     15     14      0     19     29      0    0.0  0.000      0      0  0.000  0.000  0.000  0.000   4.14   0.00   0.00      0      0    278.3   0.00   0.00   0.21   0.20   0.12   0.03   0.00   0.00   0.00   0.00   0.00   0.00   0.00      0      0      0       0       0
 1991 229    45    42    4.0      1   0.06     21     14      0     22     35      0    0.0  0.000      0      0  0.000  0.000  0.000  0.000   3.55   0.00   0.00      0      0    273.9   0.00   0.00   0.22   0.20   0.14   0.05   0.00   0.00   0.00   0.00   0.00   0.00   0.00      0      0      0       0       0
 1991 230    46    43    5.0      1   0.08     29     14      0     23     43      0    0.0  0.000      0      0  0.000  0.000  0.000  0.000   3.56   0.00   0.00      0      0    267.2   0.00   0.00   0.23   0.20   0.15   0.06   0.00   0.00   0.00   0.00   0.00   0.00   0.00      0      0      0       0       0
 1991 231    47    44    5.0      1   0.10     37     14      0     27     51      0    0.0  0.000      0      0  0.000  0.000  0.000  0.000   3.55   0.00   0.00      0      0    259.8   0.00   0.00   0.24   0.21   0.18   0.09   0.00   0.00   0.00   0.00   0.00   0.00   0.00      0      0      0       0       1
 1991 232    48    45    5.0      1   0.12     47     14      0     30     61      0    0.0  0.000      0      0  0.000  0.000  0.000  0.000   3.55   0.00   0.00      0      0    252.2   0.00   0.00   0.25   0.22   0.19   0.11   0.00   0.00   0.00   0.00   0.00   0.00   0.00      0      0      0       0       1
 1991 233    49    46    6.0      1   0.14     58     14      0     39     72      0    0.0  0.000      0      0  0.000  0.000  0.000  0.000   3.54   0.00   0.00      0      0    244.6   0.00   0.00   0.27   0.24   0.24   0.19   0.00   0.00   0.00   0.00   0.00   0.00   0.00      0      0      0       0       1
 1991 234    50    47    6.0      1   0.17     73     14      0     48     87      0    0.0  0.000      0      0  0.000  0.000  0.000  0.000   3.46   0.00   0.00      0      0    236.4   0.00   0.00   0.28   0.27   0.28   0.26   0.00   0.00   0.00   0.00   0.00   0.00   0.00      0      0      0       0       1
 1991 235    51    48    6.0      1   0.20     86     14      0     65    100      0    0.0  0.000      0      0  0.000  0.000  0.000  0.000   3.59   0.00   0.00      0      0    230.3   0.00   0.00   0.29   0.31   0.37   0.42   0.00   0.00   0.00   0.00   0.00   0.00   0.00      0      0      0       0       1
 1991 236    52    49    6.0      1   0.22     97     14      0     85    111      0    0.0  0.000      0      0  0.000  0.000  0.000  0.000   3.71   0.00   0.00      0      0    225.8   0.00   0.00   0.30   0.37   0.46   0.60   0.00   0.00   0.00   0.00   0.00   0.00   0.00      0      0      0       0       2
 1991 237    53    50    7.0      1   0.25    113     14      0    102    127      0    0.0  0.000      0      0  0.000  0.000  0.000  0.000   3.57   0.00   0.00      0      0    220.0   0.00   0.00   0.31   0.41   0.54   0.75   0.00   0.00   0.00   0.00   0.00   0.00   0.00      0      0      0       0       2
 1991 238    54    51    7.0      1   0.27    124     14      0    105    138      0    0.0  0.000      0      0  0.000  0.000  0.000  0.000   3.77   0.00   0.00      0      0    216.7   0.00   0.00   0.31   0.42   0.55   0.78   0.00   0.00   0.00   0.00   0.00   0.00   0.00      0      0      0       0       3
 1991 239    55    52    7.0      1   0.28    133     14      0    109    147      0    0.0  0.000      0      0  0.000  0.000  0.000  0.000   3.82   0.00   0.00      0      0    214.1   0.00   0.00   0.32   0.44   0.57   0.82   0.00   0.00   0.00   0.00   0.00   0.00   0.00      0      0      0       0       3
 1991 240    56    53    7.0      1   0.31    150     14      0    124    164      0    0.0  0.000      0      0  0.000  0.000  0.000  0.000   3.63   0.00   0.00      0      0    209.7   0.00   0.00   0.32   0.48   0.64   0.94   0.01   0.00   0.00   0.00   0.00   0.00   0.00      0      0      0       0       4
 1991 241    57    54    8.0      1   0.35    172     14      0    138    186      0    0.0  0.000      0      0  0.000  0.000  0.000  0.000   3.54   0.00   0.00      0      0    204.6   0.00   0.00   0.34   0.52   0.70   1.06   0.02   0.00   0.00   0.00   0.00   0.00   0.00      0      0      0       0       4
 1991 242    58    55    8.0      1   0.40    200     14      0    143    214      0    0.0  0.000      0      0  0.000  0.000  0.000  0.000   3.47   0.00   0.00      0      0    199.1   0.00   0.00   0.35   0.53   0.72   1.10   0.03   0.00   0.00   0.00   0.00   0.00   0.00      0      0      0       0       5
 1991 243    59    56    8.0      1   0.42    215     14      0    149    229      0    0.0  0.000      0      0  0.000  0.000  0.000  0.000   3.73   0.00   0.00      0      0    196.2   0.00   0.00   0.36   0.55   0.75   1.14   0.04   0.00   0.00   0.00   0.00   0.00   0.00      0      0      0       0       6
 1991 244    60    57    8.0      1   0.44    226     14      0    165    240      0    0.0  0.000      0      0  0.000  0.000  0.000  0.000   3.79   0.00   0.00      0      0    194.2   0.00   0.00   0.37   0.57   0.82   1.27   0.06   0.00   0.00   0.00   0.00   0.00   0.00      0      0      0       0       6
 1991 245    61    58    8.0      1   0.46    243     14      0    172    257      0    0.0  0.000      0      0  0.000  0.000  0.000  0.000   3.69   0.00   0.00      0      0    191.2   0.00   0.00   0.37   0.58   0.85   1.32   0.08   0.00   0.00   0.00   0.00   0.00   0.00      0      0      0       0       7
 1991 246    62    59    9.0      1   0.51    274     14      0    191    288      0    0.0  0.000      0      0  0.000  0.000  0.000  0.000   3.51   0.00   0.00      0      0    186.5   0.00   0.00   0.39   0.61   0.93   1.46   0.12   0.00   0.00   0.00   0.00   0.00   0.00      0      0      0       0       8
 1991 247    63    60    9.0      1   0.57    313     14      0    237    327      0    0.0  0.000      0      0  0.000  0.000  0.000  0.000   3.43   0.00   0.00      0      0    181.4   0.00   0.00   0.41   0.67   1.13   1.79   0.24   0.00   0.00   0.00   0.00   0.00   0.00      0      0      0       0       9
 1991 248    64    61    9.0      2   0.65    339     14      0    296    353      0    0.0  0.000      0      0  0.000  0.000  0.000  0.000   3.59   0.00   0.00      0      0    190.5   0.00   0.00   0.42   0.75   1.37   2.20   0.41   0.00   0.00   0.00   0.00   0.00   0.00      0      0      0       0      10
 1991 249    65    62   10.0      2   0.70    374     14      0    301    388      0    0.0  0.000      0      0  0.000  0.000  0.003  0.000   3.55   0.00   0.00      0      0    186.7   0.00   0.00   0.44   0.75   1.38   2.23   0.43   0.00   0.00   0.00   0.00   0.00   0.00      0      0      0       0      12
[...]
 1995 311   127   124   22.0      3   4.02   4235   3245      0   4384   7480      0    0.0  0.000      0      0  0.000  0.000  0.061  0.000   1.73   0.00   0.00      0      0     95.0   0.00   0.00   0.99   4.00   4.00   4.00   3.98   3.98   3.98   1.20   0.00   0.00   0.00      0      0      0       0     604
 1995 312   128   125   22.0      3   4.03   4274   3353      0   4370   7628      0    0.0  0.000      0      0  0.000  0.000  0.067  0.000   1.71   0.00   0.00      0      0     94.2   0.00   0.00   1.01   3.99   3.99   3.99   3.97   3.97   3.96   1.23   0.00   0.00   0.00      0      0      0       0     626
 1995 313   129   126   22.0      3   4.03   4314   3463      0   4357   7777      0    0.0  0.000      0      0  0.000  0.000  0.067  0.000   1.68   0.00   0.00      0      0     93.4   0.00   0.00   1.02   3.99   3.99   3.99   3.96   3.96   3.95   1.26   0.00   0.00   0.00      0      0      0       0     648
 1995 314   130   127   22.0      3   4.04   4369   3615      0   4436   7984      0    0.0  0.000      0      0  0.000  0.000  0.068  0.075   1.65   0.00   0.00      0      0     92.6   0.00   0.00   1.03   4.00   4.00   4.00   4.00   4.00   4.00   1.63   0.00   0.00   0.00      0      0      0       0     670
 1995 315   131   128   22.0      3   4.06   4421   3759      0   4572   8180      0    0.0  0.000      0      0  0.000  0.000  0.070  0.023   1.62   0.00   0.00      0      0     91.8   0.00   0.00   1.04   4.00   4.00   4.00   4.00   4.00   4.00   2.15   0.00   0.00   0.00      0      0      0       0     692
 1995 316   132   129   22.0      3   4.06   4466   3883      0   4639   8349      0    0.0  0.000      0      0  0.000  0.000  0.072  0.000   1.60   0.00   0.00      0      0     91.0   0.00   0.00   1.05   4.00   4.00   4.00   4.00   4.00   4.00   2.40   0.00   0.00   0.00      0      0      0       0     715
 1995 317   133   130   22.0      3   4.07   4516   4023      0   4774   8539      0    0.0  0.000      0      0  0.000  0.000  0.075  0.000   1.57   0.00   0.00      0      0     90.1   0.00   0.00   1.06   4.00   4.00   4.00   4.00   4.00   4.00   2.76   0.00   0.00   0.00      0      0      0       0     738
 1995 318   134   131   22.0      3   4.09   4580   4196      0   4852   8776      0    0.0  0.000      0      0  0.000  0.000  0.076  0.000   1.54   0.00   0.00      0      0     89.3   0.00   0.00   1.07   4.00   4.00   4.00   4.00   4.00   4.00   2.93   0.00   0.00   0.00      0      0      0       0     762
 1995 319   135   132   22.0      4   4.05   4535   3560      0   4914   8956      0    0.0  0.000    861      0  0.000  0.000  0.077  0.000   1.68   0.00   0.10      0    861     89.3   0.00   0.00   1.08   4.00   4.00   4.00   4.00   4.00   4.00   3.01   0.00   0.00   0.00      0      0      0       0     786
 1995 320   136   133   22.0      4   4.01   4488   3613      0   4925   9095      0    0.0  0.000    994      0  0.000  0.000  0.080  0.000   1.68   0.00   0.11      0    994     89.4   0.00   0.00   1.09   4.00   4.00   4.00   4.00   4.00   4.00   3.02   0.01   0.00   0.00      0      0      0       0     811
 1995 321   137   134   22.0      4   3.98   4438   3665      0   5007   9226      0    0.0  0.000   1123      0  0.000  0.000  0.058  0.074   1.69   0.00   0.12      0   1123     89.7   0.00   0.00   1.10   4.00   4.00   4.00   4.00   4.00   4.00   3.09   0.08   0.00   0.00      0      0      0       0     836
 1995 322   138   135   22.0      4   3.95   4387   3716      0   5158   9356      0    0.0  0.000   1253      0  0.000  0.000  0.055  0.070   1.69   0.00   0.13      0   1253     90.1   0.00   0.00   1.10   4.00   4.00   4.00   4.00   4.00   4.00   3.20   0.23   0.00   0.00      0      0      0       0     861
 1995 323   139   136   22.0      4   3.93   4333   3769      0   5320   9485      0    0.0  0.000   1384      0  0.000  0.000  0.052  0.015   1.70   0.00   0.15      0   1384     90.7   0.00   0.00   1.11   4.00   4.00   4.00   4.00   4.00   4.00   3.33   0.42   0.00   0.00      0      0      0       0     886
 1995 324   140   137   22.0      4   3.90   4277   3828      0   5477   9637      0    0.0  0.000   1532      0  0.000  0.000  0.049  0.000   1.71   0.00   0.16      0   1532     91.3   0.00   0.00   1.12   4.00   4.00   4.00   4.00   4.00   4.00   3.44   0.63   0.00   0.00      0      0      0       0     913
 1995 325   141   138   22.0      4   3.88   4217   3899      0   5524   9828      0    0.0  0.000   1711      0  0.000  0.000  0.045  0.000   1.72   0.00   0.17      0   1711     92.1   0.00   0.00   1.13   4.00   4.00   4.00   4.00   4.00   4.00   3.48   0.72   0.00   0.00      0      0      0       0     940
 1995 326   142   139   22.0      4   3.86   4155   3965      0   5506   9995      0    0.0  0.000   1875      0  0.000  0.000  0.042  0.000   1.73   0.00   0.19      0   1875     93.0   0.00   0.00   1.14   4.00   4.00   4.00   3.99   3.99   3.99   3.47   0.73   0.00   0.00      0      0      0       0     968
 1995 327   143   140   22.0      4   3.84   4090   4036      0   5536  10178      0    0.0  0.000   2052      0  0.000  0.000  0.039  0.000   1.73   0.00   0.20      0   2052     94.0   0.00   0.00   1.15   4.00   4.00   4.00   4.00   4.00   4.00   3.49   0.81   0.00   0.00      0      0      0       0     996
 1995 328   144   141   22.0      4   3.83   4022   4100      0   5617  10335      0    0.0  0.000   2213      0  0.000  0.000  0.036  0.000   1.74   0.00   0.21      0   2213     95.1   0.00   0.00   1.15   4.00   4.00   4.00   4.00   4.00   4.00   3.55   0.96   0.00   0.00      0      0      0       0    1023
 1995 329   145   142   22.0      4   3.81   3952   4163      0   5697  10484      0    0.0  0.000   2369      0  0.000  0.000  0.034  0.000   1.75   0.00   0.23      0   2369     96.4   0.00   0.00   1.16   4.00   4.00   4.00   4.00   4.00   4.00   3.61   1.11   0.00   0.00      0      0      0       0    1051
 1995 330   146   143   22.0      4   3.80   3878   4249      0   5784  10710      0    0.0  0.000   2583      0  0.000  0.000  0.031  0.000   1.75   0.00   0.24      0   2583     97.9   0.00   0.00   1.17   4.00   4.00   4.00   4.00   4.00   4.00   3.67   1.26   0.00   0.00      0      0      0       0    1080
 1995 331   147   144   22.0      4   3.78   3803   4295      0   5956  10798      0    0.0  0.000   2700      0  0.000  0.000  0.029  0.000   1.76   0.00   0.25      0   2700     99.4   0.00   0.00   1.18   4.00   4.00   4.00   4.00   4.00   4.00   3.80   1.50   0.00   0.00      0      0      0       0    1109
 1995 332   148   145   22.0      4   3.77   3726   4341      0   6142  10881      0    0.0  0.000   2814      0  0.000  0.000  0.028  0.000   1.77   0.00   0.26      0   2814    101.1   0.00   0.00   1.18   4.00   4.00   4.00   4.00   4.00   4.00   3.93   1.72   0.00   0.00      0      0      0       0    1138
 1995 333   149   146   22.0      4   3.76   3646   4410      0   6296  11041      0    0.0  0.000   2986      0  0.000  0.000  0.025  0.000   1.77   0.00   0.27      0   2986    103.0   0.00   0.00   1.19   4.00   4.00   4.00   4.00   4.00   4.00   4.00   1.89   0.00   0.00      0      0      0       0    1169
 1995 334   150   147   22.0      5   3.75   3646   4410    287   6337  11328   3826    7.5  0.025   3273      7  0.000  0.000  0.006  0.000   1.72   8.77   0.29      0   3273    102.9   0.00   0.00   1.20   4.00   4.00   4.00   4.00   4.00   4.00   4.00   1.94   0.00   0.00      0      0      0       0    1201
 1995 335   151   148   22.0      5   3.74   3646   4375    573   6305  11579   3826   15.0  0.049   3558      7  0.000  0.000  0.019  0.000   1.67  16.09   0.31      0   3558    102.7   0.00   0.00   1.20   4.00   4.00   4.00   4.00   4.00   4.00   4.00   1.94   0.00   0.00      0      0      0       0    1232
 1995 336   152   149   22.0      5   3.73   3646   4410    860   6313  11901   3826   22.5  0.072   3845      7  0.000  0.000  0.026  0.000   1.61  22.35   0.32      0   3845    102.4   0.00   0.00   1.21   4.00   4.00   4.00   4.00   4.00   4.00   4.00   1.95   0.00   0.00      0      0      0       0    1264
 1995 337   153   150   22.0      5   3.72   3646   4410   1147   6346  12188   3826   30.0  0.094   4132      7  0.000  0.000  0.032  0.000   1.56  27.75   0.34      0   4132    102.0   0.00   0.00   1.22   4.00   4.00   4.00   4.00   4.00   4.00   4.00   1.96   0.00   0.00      0      0      0       0    1295
 1995 338   154   151   22.0      5   3.70   3646   4410   1433   6388  12475   3826   37.5  0.115   4419      7  0.000  0.000  0.042  0.000   1.51  32.44   0.35      0   4419    101.4   0.00   0.00   1.23   4.00   4.00   4.00   4.00   4.00   4.00   4.00   1.98   0.00   0.00      0      0      0       0    1327
 1995 339   155   152   22.0      5   3.67   3646   4410   1720   6414  12761   3826   45.0  0.135   4706      7  0.000  0.000  0.049  0.000   1.46  36.56   0.37      0   4706    100.8   0.00   0.00   1.25   4.00   4.00   4.00   4.00   4.00   4.00   4.00   1.99   0.00   0.00      0      0      0       0    1359
 1995 340   156   153   22.0      5   3.65   3646   4410   2007   6454  13048   3826   52.5  0.154   4993      7  0.000  0.000  0.056  0.000   1.41  40.20   0.38      0   4993    100.1   0.00   0.00   1.25   4.00   4.00   4.00   4.00   4.00   4.00   4.00   2.01   0.00   0.00      0      0      0       0    1391
 1995 341   157   154   22.0      5   3.62   3646   4410   2294   6458  13335   3826   60.0  0.172   5280      7  0.000  0.000  0.065  0.000   1.36  43.45   0.40      0   5280     99.3   0.00   0.00   1.25   4.00   4.00   4.00   4.00   4.00   4.00   4.00   2.01   0.00   0.00      0      0      0       0    1423
 1995 342   158   155   22.0      5   3.59   3646   4410   2489   6517  13530   3826   65.1  0.184   5475      7  0.000  0.000  0.076  0.000   1.33  45.46   0.40      0   5475     98.3   0.00   0.00   1.25   4.00   4.00   4.00   4.00   4.00   4.00   4.00   2.04   0.00   0.00      0      0      0       0    1456
 1995 343   159   156   22.0      5   3.55   3646   4410   2647   6589  13688   3826   69.2  0.193   5632      7  0.000  0.127  0.083  0.000   1.30  46.99   0.41      0   5632     97.3   0.00   0.00   1.25   4.00   4.00   4.00   4.00   4.00   4.00   4.00   2.07   0.00   0.00      0      0      0       0    1488
 1995 344   160   157   22.0      5   3.51   3646   4410   2861   6645  13902   3826   74.8  0.206   5847      7  0.019  0.347  0.086  0.000   1.27  48.94   0.42      0   5847     96.3   0.00   0.00   1.25   3.98   4.00   4.00   4.00   4.00   4.00   4.00   2.10   0.00   0.00      0      0      0       0    1521
 1995 345   161   158   22.0      5   3.47   3646   4410   3099   6667  14140   3826   81.0  0.219   6084      7  0.079  0.387  0.093  0.000   1.23  50.93   0.43      0   6084     95.1   0.00   0.00   1.25   3.96   4.00   4.00   4.00   4.00   4.00   4.00   2.11   0.00   0.00      0      0      0       0    1554
 1995 346   162   159   22.0      5   3.41   3646   4410   3243   6701  14284   3826   84.8  0.227   6228      7  0.342  0.562  0.103  0.000   1.20  52.06   0.44      0   6228     93.5   0.00   0.00   1.25   3.94   4.00   4.00   4.00   4.00   4.00   4.00   2.13   0.00   0.00      0      0      0       0    1588
 1995 347   163   160   22.0      5   3.33   3646   4410   3442   6699  14483   3826   90.0  0.238   6427      7  0.475  0.651  0.105  0.000   1.17  53.55   0.44      0   6427     91.3   0.00   0.00   1.25   3.92   4.00   4.00   4.00   4.00   4.00   4.00   2.13   0.00   0.00      0      0      0       0    1621
 1995 348   164   161   22.0      5   3.24   3646   4410   3629   6690  14670   3826   94.9  0.247   6615      7  0.525  0.684  0.112  0.000   1.14  54.86   0.45      0   6615     88.9   0.00   0.00   1.25   3.90   4.00   4.00   4.00   4.00   4.00   4.00   2.13   0.00   0.00      0      0      0       0    1655
 1995 349   165   162   22.0      5   3.15   3646   4410   3812   6674  14853   3826   99.6  0.257   6798      7  0.556  0.704  0.118  0.000   1.11  56.08   0.46      0   6798     86.4   0.00   0.00   1.25   3.88   4.00   4.00   4.00   4.00   4.00   3.99   2.13   0.00   0.00      0      0      0       0    1688
 1995 350   166   163   22.0      5   3.05   3646   4410   3998   6641  15040   3826  104.5  0.266   6984      7  0.638  0.759  0.121  0.000   1.08  57.25   0.46      0   6984     83.7   0.00   0.00   1.25   3.86   3.98   3.98   3.98   3.98   3.98   3.97   2.12   0.00   0.00      0      0      0       0    1722
 1995 351   167   164   22.0      5   2.95   3646   4410   4178   6611  15219   3826  109.2  0.275   7163      7  0.682  0.788  0.126  0.000   1.05  58.32   0.47      0   7163     80.8   0.00   0.00   1.25   3.84   3.97   3.97   3.96   3.96   3.96   3.96   2.11   0.00   0.00      0      0      0       0    1755
 1995 352   168   165   22.0      5   2.84   3646   4384   4348   6578  15363   3826  113.6  0.283   7334      7  0.741  0.828  0.129  0.000   1.03  59.29   0.48      0   7334     77.8   0.00   0.00   1.25   3.84   3.97   3.97   3.96   3.96   3.96   3.96   2.11   0.00   0.00      0      0      0       0    1788
 1995 353   169   166   22.0      5   2.73   3646   4376   4520   6545  15527   3826  118.1  0.291   7506      7  0.727  0.819  0.133  0.000   1.00  60.22   0.48      0   7506     75.0   0.00   0.00   1.25   3.84   3.97   3.97   3.96   3.96   3.96   3.96   2.11   0.00   0.00      0      0      0       0    1821
 1995 354   170   167   22.0      5   2.63   3646   4361   4690   6513  15683   3826  122.6  0.299   7676      7  0.739  0.827  0.137  0.000   0.97  61.10   0.49      0   7676     72.2   0.00   0.00   1.25   3.84   3.97   3.97   3.96   3.96   3.96   3.96   2.11   0.00   0.00      0      0      0       0    1854
 1995 355   171   168   22.0      5   2.54   3646   4316   4864   6480  15812   3826  127.1  0.308   7850      7  0.718  0.812  0.140  0.000   0.95  61.96   0.50      0   7850     69.6   0.00   0.00   1.25   3.84   3.97   3.97   3.96   3.96   3.96   3.96   2.11   0.00   0.00      0      0      0       0    1886
 1995 356   172   169   22.0      5   2.46   3646   4264   5056   6448  15952   3826  132.2  0.317   8042      7  0.600  0.734  0.145  0.000   0.93  62.87   0.50      0   8042     67.5   0.00   0.00   1.25   3.84   3.97   3.97   3.96   3.96   3.96   3.96   2.11   0.00   0.00      0      0      0       0    1918
 1995 357   173   170   22.0      5   2.42   3646   4170   5310   6415  16112   3826  138.8  0.330   8296      7  0.000  0.000  0.150  0.000   0.91  64.01   0.51      0   8296     66.3   0.00   0.00   1.25   3.84   3.97   3.97   3.96   3.96   3.96   3.96   2.11   0.00   0.00      0      0      0       0    1951
 1995 358   174   171   22.0      5   2.37   3646   4046   5579   6383  16256   3826  145.8  0.343   8564      7  0.000  0.000  0.159  0.000   0.88  65.14   0.53      0   8564     65.0   0.00   0.00   1.25   3.84   3.97   3.97   3.96   3.96   3.96   3.96   2.11   0.00   0.00      0      0      0       0    1983
 1995 359   175   172   22.0      5   2.32   3646   3941   5849   6351  16422   3826  152.9  0.356   8835      7  0.000  0.000  0.168  0.061   0.86  66.21   0.54      0   8835     63.6   0.00   0.00   1.25   3.84   3.97   3.97   3.96   3.96   3.96   3.96   2.11   0.00   0.00      0      0      0       0    2015
 1995 360   176   173   22.0      5   2.27   3646   4045   6120   6371  16796   3826  160.0  0.364   9106      7  0.000  0.000  0.175  0.015   0.81  67.21   0.54      0   9106     62.2   0.00   0.00   1.25   4.00   4.00   4.00   4.00   4.00   4.00   3.98   2.12   0.00   0.00      0      0      0       0    2046
 1995 361   177   174   22.0      5   2.22   3646   4150   6367   6392  17148   3826  166.4  0.371   9353      7  0.000  0.000  0.183  0.000   0.77  68.08   0.55      0   9353     60.8   0.00   0.00   1.25   4.00   4.00   4.00   4.00   4.00   4.00   4.00   2.13   0.00   0.00      0      0      0       0    2078
 1995 362   178   175   22.0      5   2.16   3646   4243   6627   6407  17501   3826  173.2  0.379   9613      7  0.000  0.000  0.206  0.000   0.73  68.94   0.55      0   9613     59.2   0.00   0.00   1.25   4.00   4.00   4.00   4.00   4.00   4.00   4.00   2.14   0.00   0.00      0      0      0       0    2110
 1995 363   179   176   22.0      5   2.10   3646   4304   6904   6406  17840   3826  180.5  0.387   9889      7  0.000  0.000  0.266  0.000   0.70  69.81   0.55      0   9889     57.6   0.00   0.00   1.25   4.00   4.00   4.00   4.00   4.00   4.00   4.00   2.14   0.00   0.00      0      0      0       0    2142
 1995 364   180   177   22.0      5   2.04   3646   4354   7177   6398  18162   3826  187.6  0.395  10162      7  0.000  0.000  0.323  0.000   0.67  70.62   0.56      0  10162     55.9   0.00   0.00   1.25   4.00   4.00   4.00   4.00   4.00   4.00   4.00   2.14   0.00   0.00      0      0      0       0    2174
 1995 365   181   178   22.0      5   1.97   3646   4383   7440   6381  18455   3826  194.5  0.403  10426      7  0.000  0.000  0.372  0.000   0.65  71.36   0.56      0  10426     54.1   0.00   0.00   1.25   4.00   4.00   4.00   4.00   4.00   3.99   3.99   2.13   0.00   0.00      0      0      0       0    2206
 1996 001   182   179   22.0      5   1.90   3646   4406   7708   6361  18747   3826  201.5  0.411  10694      7  0.000  0.000  0.415  0.000   0.62  72.08   0.57      0  10694     52.2   0.00   0.00   1.25   4.00   4.00   4.00   4.00   3.99   3.99   3.98   2.12   0.00   0.00      0      0      0       0    2238
 1996 002   183   180   22.0      5   1.84   3646   4409   7995   6330  19035   3826  209.0  0.420  10981      7  0.000  0.000  0.451  0.000   0.60  72.81   0.58      0  10981     50.4   0.00   0.00   1.25   3.98   3.98   3.98   3.98   3.97   3.97   3.96   2.11   0.00   0.00      0      0      0       0    2270
 1996 003   184   181   22.0      5   1.77   3646   4381   8282   6298  19295   3826  216.5  0.429  11268      7  0.000  0.000  0.488  0.000   0.58  73.50   0.58      0  11268     48.5   0.00   0.00   1.25   3.98   3.98   3.98   3.98   3.97   3.97   3.96   2.11   0.00   0.00      0      0      0       0    2302
 1996 004   185   182   22.0      5   1.70   3646   4218   8569   6267  19419   3826  224.0  0.441  11555      7  0.000  0.000  0.527  0.000   0.57  74.16   0.60      0  11555     46.6   0.00   0.00   1.25   3.98   3.98   3.98   3.98   3.97   3.97   3.96   2.11   0.00   0.00      0      0      0       0    2333
 1996 005   186   183   22.0      5   1.70   3646   4218   8569   6267  19419   3826  224.0  0.441  11555      7  0.000  0.000  0.527  0.000   0.57  74.16   0.60      0  11555     46.6   0.00   0.00   1.25   3.98   3.98   3.98   3.98   3.97   3.97   3.96   2.11   0.00   0.00      0      0      0       0    2333
 1996 006   187   184   22.0      5   1.70   3646   4218   8569   6267  19419   3826  224.0  0.441  11555      7  0.000  0.000  0.527  0.000   0.57  74.16   0.60      0  11555     46.6   0.00   0.00   1.25   3.98   3.98   3.98   3.98   3.97   3.97   3.96   2.11   0.00   0.00      0      0      0       0    2333
 1996 007   188   185   22.0      5   1.70   3646   4218   8569   6267  19419   3826  224.0  0.441  11555      7  0.000  0.000  0.527  0.000   0.57  74.16   0.60      0  11555     46.6   0.00   0.00   1.25   3.98   3.98   3.98   3.98   3.97   3.97   3.96   2.11   0.00   0.00      0      0      0       0    2333
 1996 008   189   186   22.0      5   1.70   3646   4218   8569   6267  19419   3826  224.0  0.441  11555      7  0.000  0.000  0.527  0.000   0.57  74.16   0.60      0  11555     46.6   0.00   0.00   1.25   3.98   3.98   3.98   3.98   3.97   3.97   3.96   2.11   0.00   0.00      0      0      0       0    2333
