*SOIL-PLANT-ATMOSPHERE MODULE OUTPUT FILE

*DSSAT Cropping System Model Ver. 4.0.2.000               Aug 03, 2016; 15:38:57

*RUN   1        : UYMZ                    
 MODEL          : MZCER040 - Maize           
 EXPERIMENT     : UYMZ0133 MZ    late to create DSS                             
 TREATMENT  1   : UYMZ                    

@YEAR DOY   DAS   SRAA   TMXA   TMNA   EOAA   ETAA   EPAA   ESAA   EFAD   ETAC   EPAC   ESAC   EFAC
 1987 212     0   9.80  11.90   3.70  1.819  1.819  0.000  1.819  0.000    1.8    0.0    1.8    0.0
 1987 213     1  15.20  18.40   4.80  3.147  1.536  0.000  1.536  0.000    3.4    0.0    3.4    0.0
 1987 214     2  14.40  19.50   7.40  3.103  1.149  0.000  1.149  0.000    4.5    0.0    4.5    0.0
 1987 215     3  14.00  17.50   3.00  2.812  2.812  0.000  2.812  0.000    7.3    0.0    7.3    0.0
 1987 216     4   8.10  14.10   4.80  1.574  1.574  0.000  1.574  0.000    8.9    0.0    8.9    0.0
 1987 217     5   4.40  12.00   9.90  0.872  0.872  0.000  0.872  0.000    9.8    0.0    9.8    0.0
 1987 218     6   4.50   9.60   7.70  0.840  0.840  0.000  0.840  0.000   10.6    0.0   10.6    0.0
 1987 219     7   9.20  14.40   8.00  1.854  1.854  0.000  1.854  0.000   12.5    0.0   12.5    0.0
 1987 220     8   7.10  16.60   6.70  1.459  1.459  0.000  1.459  0.000   13.9    0.0   13.9    0.0
 1987 221     9  11.70  18.00   7.60  2.474  2.474  0.000  2.474  0.000   16.4    0.0   16.4    0.0
 1987 222    10   6.20  18.10   9.90  1.341  0.890  0.000  0.890  0.000   17.3    0.0   17.3    0.0
 1987 223    11  10.30  19.40  12.90  2.328  2.328  0.000  2.328  0.000   19.6    0.0   19.6    0.0
 1987 224    12   4.70  17.40  12.50  1.031  1.031  0.000  1.031  0.000   20.6    0.0   20.6    0.0
 1987 225    13   4.70  16.00  11.90  1.006  1.006  0.000  1.006  0.000   21.6    0.0   21.6    0.0
 1987 226    14   7.60  20.40  10.80  1.709  1.709  0.000  1.709  0.000   23.4    0.0   23.4    0.0
 1987 227    15   7.10  17.00  10.00  1.514  1.514  0.000  1.514  0.000   24.9    0.0   24.9    0.0
 1987 228    16  16.10  13.10   6.40  3.132  3.132  0.000  3.132  0.000   28.0    0.0   28.0    0.0
 1987 229    17   5.70   8.20   5.10  1.012  1.012  0.000  1.012  0.000   29.0    0.0   29.0    0.0
 1987 230    18   6.10  10.40   5.90  1.132  0.896  0.000  0.896  0.000   29.9    0.0   29.9    0.0
 1987 231    19  14.00  10.40   3.60  2.534  2.534  0.000  2.534  0.000   32.4    0.0   32.4    0.0
 1987 232    20   8.60  11.40   4.40  1.596  1.596  0.000  1.596  0.000   34.0    0.0   34.0    0.0
 1987 233    21   6.40  14.10   7.30  1.275  1.205  0.001  1.204  0.000   35.2    0.0   35.2    0.0
 1987 234    22  17.90  18.30   5.20  3.715  0.994  0.003  0.991  0.000   36.2    0.0   36.2    0.0
 1987 235    23  16.60  19.20   4.90  3.479  0.867  0.005  0.862  0.000   37.1    0.0   37.1    0.0
 1987 236    24  11.30  20.60   6.40  2.448  0.778  0.005  0.773  0.000   37.9    0.0   37.9    0.0
 1987 237    25  15.00  22.00  12.90  3.504  0.717  0.010  0.707  0.000   38.6    0.0   38.6    0.0
 1987 238    26  16.70  21.20   7.50  3.683  0.672  0.017  0.655  0.000   39.3    0.0   39.2    0.0
 1987 239    27  13.00  22.40  10.80  2.997  0.632  0.018  0.614  0.000   39.9    0.1   39.8    0.0
 1987 240    28   5.30  17.00  12.70  1.157  1.157  0.009  1.148  0.000   41.1    0.1   41.0    0.0
 1987 241    29   5.40  13.00   8.50  1.070  1.070  0.010  1.060  0.000   42.1    0.1   42.0    0.0
 1987 242    30  18.00  13.80   4.50  3.466  3.466  0.034  3.433  0.000   45.6    0.1   45.5    0.0
 1987 243    31  18.60  14.60   2.80  3.564  2.755  0.035  2.720  0.000   48.3    0.1   48.2    0.0
 1987 244    32  11.70  17.60   5.70  2.412  2.412  0.022  2.390  0.000   50.8    0.2   50.6    0.0
 1987 245    33   5.50  14.60   9.00  1.121  1.121  0.011  1.110  0.000   51.9    0.2   51.7    0.0
 1987 246    34  19.50  17.20   6.00  4.008  1.201  0.044  1.157  0.000   53.1    0.2   52.9    0.0
 1987 247    35  19.40  15.40   3.00  3.769  1.009  0.045  0.964  0.000   54.1    0.3   53.8    0.0
 1987 248    36  11.60  15.90   2.10  2.250  0.870  0.025  0.844  0.000   55.0    0.3   54.7    0.0
 1987 249    37  19.40  15.00   2.40  3.724  0.800  0.040  0.760  0.000   55.8    0.3   55.4    0.0
 1987 250    38  16.20  18.10   4.00  3.309  0.733  0.036  0.697  0.000   56.5    0.4   56.1    0.0
 1987 251    39   9.80  22.40   7.90  2.201  0.676  0.029  0.647  0.000   57.2    0.4   56.8    0.0
 1987 252    40   5.90  21.50  12.30  1.359  0.633  0.026  0.607  0.000   57.8    0.4   57.4    0.0
 1987 253    41  15.60  16.60   7.40  3.214  0.661  0.088  0.574  0.000   58.5    0.5   58.0    0.0
 1987 254    42  19.70  18.30   4.30  4.035  0.672  0.127  0.545  0.000   59.1    0.6   58.5    0.0
 1987 255    43  20.60  18.20   3.30  4.171  0.665  0.145  0.520  0.000   59.8    0.8   59.0    0.0
 1987 256    44  19.20  24.90   6.30  4.379  0.656  0.157  0.499  0.000   60.5    0.9   59.5    0.0
 1987 257    45   6.10  18.30  15.60  1.382  0.543  0.063  0.480  0.000   61.0    1.0   60.0    0.0
 1987 258    46  12.40  16.90   7.00  2.545  2.545  0.142  2.403  0.000   63.5    1.1   62.4    0.0
 1987 259    47  21.50  12.00   3.10  3.936  3.896  0.239  3.657  0.000   67.4    1.4   66.1    0.0
 1987 260    48  15.50  16.80   5.50  3.131  3.131  0.179  2.952  0.000   70.6    1.6   69.0    0.0
 1987 261    49  13.90  16.90   6.10  2.826  1.778  0.173  1.606  0.000   72.4    1.7   70.6    0.0
 1987 262    50  21.20  14.30   3.80  4.050  1.444  0.267  1.177  0.000   73.8    2.0   71.8    0.0
 1987 263    51  20.70  17.00   1.50  4.026  1.238  0.263  0.975  0.000   75.0    2.3   72.8    0.0
 1987 264    52  12.40  13.90   4.20  2.368  0.983  0.132  0.851  0.000   76.0    2.4   73.6    0.0
 1987 265    53  17.10  15.00   1.20  3.220  0.945  0.180  0.765  0.000   77.0    2.6   74.4    0.0
 1987 266    54  16.60  17.30   5.60  3.386  0.854  0.153  0.701  0.000   77.8    2.7   75.1    0.0
 1987 267    55  22.60  20.20   4.60  4.755  0.893  0.242  0.651  0.000   78.7    3.0   75.7    0.0
 1987 268    56  20.00  24.20   5.90  4.489  0.871  0.261  0.610  0.000   79.6    3.2   76.3    0.0
 1987 269    57  16.90  25.40  12.80  4.073  0.866  0.290  0.576  0.000   80.4    3.5   76.9    0.0
 1987 270    58  17.40  20.90  10.30  3.868  0.897  0.350  0.547  0.000   81.3    3.9   77.5    0.0
 1987 271    59  21.10  19.70   7.90  4.508  0.994  0.472  0.522  0.000   82.3    4.3   78.0    0.0
 1987 272    60  19.00  24.70   7.20  4.303  1.003  0.502  0.500  0.000   83.3    4.9   78.5    0.0
 1987 273    61   6.90  20.10  12.00  1.531  1.531  0.205  1.326  0.000   84.9    5.1   79.8    0.0
 1987 274    62  22.60  19.10   8.20  4.770  3.220  0.713  2.507  0.000   88.1    5.8   82.3    0.0
 1987 275    63  20.70  17.00   6.30  4.159  2.553  0.676  1.877  0.000   90.6    6.4   84.2    0.0
 1987 276    64  15.20  19.90   5.40  3.151  1.808  0.541  1.267  0.000   92.5    7.0   85.5    0.0
 1987 277    65  23.10  23.50   9.30  5.193  1.971  0.947  1.024  0.000   94.4    7.9   86.5    0.0
 1987 278    66  23.40  25.00  10.00  5.376  1.976  1.093  0.883  0.000   96.4    9.0   87.4    0.0
 1987 279    67  15.50  24.60   9.50  3.516  1.588  0.800  0.788  0.000   98.0    9.8   88.2    0.0
 1987 280    68   7.90  21.10  13.20  1.762  1.159  0.441  0.719  0.000   99.1   10.3   88.9    0.0
 1987 281    69  14.70  20.50  11.50  3.196  2.708  0.868  1.840  0.000  101.9   11.1   90.7    0.0
 1987 282    70  22.90  21.90   8.10  4.908  2.130  1.432  0.698  0.000  104.0   12.6   91.4    0.0
 1987 283    71  19.90  31.30  11.60  4.909  2.196  1.547  0.648  0.000  106.2   14.1   92.1    0.0
 1987 284    72  15.40  23.20  16.30  3.560  3.560  1.275  2.285  0.000  109.7   15.4   94.4    0.0
 1987 285    73  22.90  22.00  12.00  5.006  5.006  1.969  3.037  0.000  114.7   17.4   97.4    0.0
 1987 286    74  21.10  17.90   8.10  4.200  4.200  1.772  2.427  0.000  118.9   19.1   99.8    0.0
 1987 287    75  12.50  18.80   5.30  2.450  2.110  1.064  1.046  0.000  121.1   20.2  100.9    0.0
 1987 288    76   8.10  17.80  11.50  1.655  1.655  0.737  0.918  0.000  122.7   20.9  101.8    0.0
 1987 289    77  17.80  18.90  10.80  3.660  3.660  1.685  1.974  0.000  126.4   22.6  103.8    0.0
 1987 290    78  26.30  21.00   8.00  5.411  5.411  2.584  2.827  0.000  131.8   25.2  106.6    0.0
 1987 291    79  27.50  21.20   8.00  5.658  4.626  2.796  1.830  0.000  136.4   28.0  108.4    0.0
 1987 292    80  21.60  21.00  10.00  4.500  4.500  2.299  2.201  0.000  140.9   30.3  110.6    0.0
 1987 293    81  26.60  25.40   7.70  5.734  4.419  3.039  1.379  0.000  145.3   33.3  112.0    0.0
 1987 294    82  23.80  25.50  11.70  5.293  4.001  2.921  1.080  0.000  149.3   36.3  113.1    0.0
 1987 295    83  20.80  23.50  12.00  4.503  3.541  2.622  0.918  0.000  152.9   38.9  114.0    0.0
 1987 296    84  23.80  30.00  12.40  5.568  4.200  3.387  0.813  0.000  157.1   42.3  114.8    0.0
 1987 297    85  19.70  26.10  15.90  4.503  3.625  2.888  0.737  0.000  160.7   45.2  115.5    0.0
 1987 298    86  11.30  22.60  16.40  2.476  2.340  1.661  0.679  0.000  163.0   46.8  116.2    0.0
 1987 299    87   9.50  25.20  17.40  2.157  2.132  1.499  0.633  0.000  165.2   48.3  116.9    0.0
 1987 300    88   8.90  21.50  14.90  1.886  1.886  1.359  0.527  0.000  167.1   49.7  117.4    0.0
 1987 301    89  18.20  23.50  13.60  3.901  3.448  2.881  0.567  0.000  170.5   52.6  117.9    0.0
 1987 302    90  27.80  27.50  11.40  6.130  6.130  4.634  1.496  0.000  176.6   57.2  119.4    0.0
 1987 303    91  27.00  31.90  12.40  6.299  6.299  4.872  1.427  0.000  182.9   62.1  120.9    0.0
 1987 304    92  27.40  30.10  14.90  6.364  6.364  5.051  1.313  0.000  189.3   67.1  122.2    0.0
 1987 305    93  14.80  27.20  15.00  3.318  3.318  2.696  0.623  0.000  192.6   69.8  122.8    0.0
 1987 306    94  12.90  28.20  16.50  2.953  2.953  2.445  0.509  0.000  195.6   72.3  123.3    0.0
 1987 307    95  13.30  27.70  13.50  2.951  2.951  2.489  0.463  0.000  198.5   74.7  123.8    0.0
 1987 308    96   8.30  21.00  18.80  1.770  1.770  1.514  0.256  0.000  200.3   76.3  124.0    0.0
 1987 309    97   8.50  20.90  18.30  1.801  1.801  1.555  0.246  0.000  202.1   77.8  124.3    0.0
 1987 310    98  11.60  23.10  13.60  2.428  2.428  2.113  0.315  0.000  204.5   79.9  124.6    0.0
 1987 311    99  29.30  25.20  10.40  6.122  6.122  5.379  0.743  0.000  210.6   85.3  125.3    0.0
 1987 312   100  24.00  24.20  10.30  4.943  4.943  4.379  0.564  0.000  215.6   89.7  125.9    0.0
 1987 313   101  29.20  20.50   7.20  5.573  5.573  4.972  0.601  0.000  221.2   94.7  126.5    0.0
 1987 314   102  28.90  23.40   8.30  5.785  5.785  5.182  0.602  0.000  226.9   99.8  127.1    0.0
 1987 315   103  28.30  26.60  11.40  6.047  6.047  5.446  0.600  0.000  233.0  105.3  127.7    0.0
 1987 316   104  22.00  27.30  13.50  4.816  4.816  4.370  0.446  0.000  237.8  109.6  128.2    0.0
 1987 317   105  24.50  28.90  15.20  5.531  5.531  5.057  0.474  0.000  243.3  114.7  128.6    0.0
 1987 318   106  23.90  28.20  17.20  5.422  5.422  5.047  0.375  0.000  248.8  119.8  129.0    0.0
 1987 319   107  24.90  26.60  15.70  5.476  5.476  5.144  0.332  0.000  254.2  124.9  129.3    0.0
 1987 320   108  29.70  24.20  11.70  6.140  6.140  5.799  0.341  0.000  260.4  130.7  129.7    0.0
 1987 321   109  30.00  29.00  12.10  6.592  6.592  6.239  0.353  0.000  267.0  136.9  130.0    0.0
 1987 322   110  13.50  27.70  15.80  3.006  3.006  2.853  0.153  0.000  270.0  139.8  130.2    0.0
 1987 323   111  14.20  25.10  15.70  3.064  3.064  2.912  0.152  0.000  273.0  142.7  130.3    0.0
 1987 324   112  11.00  21.60  14.00  2.242  2.242  2.134  0.108  0.000  275.3  144.8  130.4    0.0
 1987 325   113  30.50  21.20  10.70  6.012  6.012  5.725  0.286  0.000  281.3  150.6  130.7    0.0
 1987 326   114  30.40  22.30   8.50  5.963  5.963  5.679  0.284  0.000  287.2  156.2  131.0    0.0
 1987 327   115  12.10  22.00  10.70  2.410  2.410  2.295  0.115  0.000  289.7  158.5  131.1    0.0
 1987 328   116  14.40  24.70  15.20  3.079  3.079  2.932  0.147  0.000  292.7  161.5  131.3    0.0
 1987 329   117  18.10  25.00  16.70  3.930  3.930  3.745  0.186  0.000  296.7  165.2  131.5    0.0
 1987 330   118  16.80  24.60  14.30  3.561  3.561  3.395  0.167  0.000  300.2  168.6  131.6    0.0
 1987 331   119  26.30  25.50  13.30  5.591  5.591  5.331  0.260  0.000  305.8  173.9  131.9    0.0
 1987 332   120  30.10  29.50  13.90  6.739  6.739  6.426  0.313  0.000  312.6  180.4  132.2    0.0
 1987 333   121  30.10  32.30  17.20  7.126  7.126  6.797  0.328  0.000  319.7  187.2  132.5    0.0
 1987 334   122  29.60  33.10  19.10  7.164  7.164  6.839  0.324  0.000  326.8  194.0  132.8    0.0
 1987 335   123  29.70  36.40  20.80  8.004  8.004  7.649  0.356  0.000  334.9  201.6  133.2    0.0
 1987 336   124  17.80  30.10  21.10  4.232  4.232  4.037  0.195  0.000  339.1  205.7  133.4    0.0
 1987 337   125   9.30  24.60  19.50  2.055  2.055  1.956  0.098  0.000  341.1  207.6  133.5    0.0
 1987 338   126  11.40  20.00  14.40  2.285  2.285  2.172  0.112  0.000  343.4  209.8  133.6    0.0
 1987 339   127  30.30  25.00  12.30  6.354  6.354  6.033  0.320  0.000  349.8  215.8  133.9    0.0
 1987 340   128  29.60  27.40  13.00  6.426  6.426  6.094  0.332  0.000  356.2  221.9  134.3    0.0
 1987 341   129  11.10  23.80  15.70  2.359  2.359  2.234  0.124  0.000  358.6  224.2  134.4    0.0
 1987 342   130  25.40  24.20  14.80  5.385  5.385  5.095  0.290  0.000  363.9  229.3  134.7    0.0
 1987 343   131  29.00  25.40  12.90  6.144  6.144  5.807  0.337  0.000  370.1  235.1  135.0    0.0
 1987 344   132  31.20  29.20  15.00  7.029  7.029  6.636  0.393  0.000  377.1  241.7  135.4    0.0
 1987 345   133  20.10  27.10  16.60  4.475  4.475  4.221  0.254  0.000  381.6  245.9  135.7    0.0
 1987 346   134  30.60  24.20  12.70  6.381  6.381  6.013  0.368  0.000  388.0  251.9  136.0    0.0
 1987 347   135  31.30  26.30  10.90  6.600  6.600  6.214  0.386  0.000  394.6  258.2  136.4    0.0
 1987 348   136  16.90  26.70  14.00  3.671  3.671  3.454  0.217  0.000  398.2  261.6  136.6    0.0
 1987 349   137  23.60  31.90  16.80  5.556  5.556  5.224  0.333  0.000  403.8  266.8  137.0    0.0
 1987 350   138  10.50  24.30  19.20  2.310  2.310  2.170  0.140  0.000  406.1  269.0  137.1    0.0
 1987 351   139  28.90  24.10  15.10  6.141  6.141  5.762  0.379  0.000  412.3  274.8  137.5    0.0
 1987 352   140  24.50  24.30  12.50  5.110  5.110  4.789  0.321  0.000  417.4  279.6  137.8    0.0
 1987 353   141  29.00  25.30  12.00  6.099  6.099  5.709  0.391  0.000  423.5  285.3  138.2    0.0
 1987 354   142  24.60  25.10  14.70  5.276  5.276  4.931  0.346  0.000  428.7  290.2  138.5    0.0
 1987 355   143  31.80  23.90  12.00  6.576  6.576  6.136  0.441  0.000  435.3  296.3  139.0    0.0
 1987 356   144  23.40  25.00  11.30  4.878  4.878  4.543  0.335  0.000  440.2  300.9  139.3    0.0
 1987 357   145  25.70  25.10  13.10  5.445  5.445  5.062  0.383  0.000  445.6  305.9  139.7    0.0
 1987 358   146  31.60  27.30  12.80  6.860  6.860  6.364  0.496  0.000  452.5  312.3  140.2    0.0
 1987 359   147   9.80  25.70  14.80  2.121  2.121  1.964  0.157  0.000  454.6  314.3  140.4    0.0
 1987 360   148  14.60  27.20  17.80  3.293  3.293  3.042  0.252  0.000  457.9  317.3  140.6    0.0
 1987 361   149  22.70  30.90  17.20  5.315  5.315  4.897  0.418  0.000  463.2  322.2  141.0    0.0
 1987 362   150  18.70  28.90  19.70  4.364  4.364  4.010  0.354  0.000  467.6  326.2  141.4    0.0
 1987 363   151   9.10  24.10  19.50  2.008  2.008  1.840  0.168  0.000  469.6  328.1  141.5    0.0
 1987 364   152  14.40  27.60  18.10  3.275  3.275  2.990  0.285  0.000  472.9  331.0  141.8    0.0
 1987 365   153  24.30  28.10  17.30  5.527  5.527  5.027  0.500  0.000  478.4  336.1  142.3    0.0
 1988 001   154  29.90  30.80  17.80  7.039  7.039  6.377  0.661  0.000  485.4  342.5  143.0    0.0
 1988 002   155  30.80  27.40  19.00  7.047  7.047  6.358  0.690  0.000  492.5  348.8  143.7    0.0
 1988 003   156  28.70  31.70  18.30  6.855  6.855  6.155  0.701  0.000  499.3  355.0  144.4    0.0
 1988 004   157  31.30  34.30  19.10  7.736  7.736  6.908  0.828  0.000  507.1  361.9  145.2    0.0
 1988 005   158  17.40  27.90  18.70  4.003  4.003  3.554  0.449  0.000  511.1  365.4  145.7    0.0
 1988 006   159  31.50  22.00  12.70  6.442  6.442  5.684  0.758  0.000  517.5  371.1  146.4    0.0
 1988 007   160  31.30  27.00  10.70  6.705  6.705  5.875  0.829  0.000  524.2  377.0  147.2    0.0
 1988 008   161  28.70  29.10  14.20  6.484  6.484  5.641  0.843  0.000  530.7  382.6  148.1    0.0
 1988 009   162  31.30  30.70  17.40  7.382  7.382  6.373  1.009  0.000  538.1  389.0  149.1    0.0
 1988 010   163  26.20  33.80  17.30  6.393  6.393  5.473  0.919  0.000  544.5  394.5  150.0    0.0
 1988 011   164  22.70  34.70  19.40  5.681  5.681  4.821  0.860  0.000  550.2  399.3  150.9    0.0
 1988 012   165  28.30  34.70  20.60  7.149  7.149  6.010  1.139  0.000  557.3  405.3  152.0    0.0
 1988 013   166  12.40  24.90  19.00  2.784  2.784  2.317  0.467  0.000  560.1  407.6  152.5    0.0
 1988 014   167  26.10  29.60  18.00  6.143  6.143  5.056  1.088  0.000  566.2  412.7  153.6    0.0
 1988 015   168  25.30  29.90  16.40  5.913  5.913  4.808  1.105  0.000  572.2  417.5  154.7    0.0
 1988 016   169  20.90  27.10  19.50  4.851  4.851  3.896  0.956  0.000  577.0  421.4  155.6    0.0
 1988 017   170  26.10  37.70  19.50  7.629  7.629  6.044  1.586  0.000  584.6  427.4  157.2    0.0
 1988 018   171   8.90  26.70  19.50  2.063  2.063  1.611  0.452  0.000  586.7  429.0  157.7    0.0
 1988 019   172   8.90  23.20  18.90  1.975  1.975  1.519  0.457  0.000  588.7  430.6  158.1    0.0
 1988 020   173  10.00  24.30  19.10  2.256  2.256  1.706  0.550  0.000  590.9  432.3  158.7    0.0
 1988 021   174  14.40  24.00  18.40  3.226  3.226  2.398  0.828  0.000  594.2  434.7  159.5    0.0
 1988 022   175  29.30  26.40  14.20  6.545  6.545  4.778  1.767  0.000  600.7  439.4  161.3    0.0
 1988 023   176  30.50  25.00  16.90  6.845  6.845  4.998  1.848  0.000  607.5  444.4  163.1    0.0
 1988 024   177  24.80  29.70  14.80  5.783  5.783  4.222  1.561  0.000  613.3  448.7  164.7    0.0
 1988 025   178  25.50  30.50  21.00  6.280  5.932  4.585  1.347  0.000  619.3  453.2  166.0    0.0

*DSSAT Cropping System Model Ver. 4.0.2.000               Aug 03, 2016; 15:38:57

*RUN   2        : UYMZ                    
 MODEL          : MZCER040 - Maize           
 EXPERIMENT     : UYMZ0133 MZ    late to create DSS                             
 TREATMENT  1   : UYMZ                    

@YEAR DOY   DAS   SRAA   TMXA   TMNA   EOAA   ETAA   EPAA   ESAA   EFAD   ETAC   EPAC   ESAC   EFAC
 1988 212     0  14.00  28.40  14.70  3.587  3.395  0.000  3.395  0.000    3.4    0.0    3.4    0.0
 1988 213     1   4.90  21.20  12.00  1.125  1.125  0.000  1.125  0.000    4.5    0.0    4.5    0.0
 1988 214     2   4.30  11.60  10.90  0.856  0.856  0.000  0.856  0.000    5.4    0.0    5.4    0.0
 1988 215     3   4.40  10.90   8.60  0.846  0.846  0.000  0.846  0.000    6.2    0.0    6.2    0.0
 1988 216     4   4.40   9.60   6.40  0.810  0.810  0.000  0.810  0.000    7.0    0.0    7.0    0.0
 1988 217     5   5.10  15.60   8.40  1.050  1.050  0.000  1.050  0.000    8.1    0.0    8.1    0.0
 1988 218     6  11.50  17.40   7.10  2.399  2.399  0.000  2.399  0.000   10.5    0.0   10.5    0.0
 1988 219     7  11.50  20.10   5.00  2.444  2.444  0.000  2.444  0.000   12.9    0.0   12.9    0.0
 1988 220     8   7.60  18.10   9.80  1.642  1.028  0.000  1.028  0.000   14.0    0.0   14.0    0.0
 1988 221     9   7.00  16.90   8.70  1.472  1.472  0.000  1.472  0.000   15.4    0.0   15.4    0.0
 1988 222    10   5.40  10.40   6.40  1.007  1.007  0.000  1.007  0.000   16.4    0.0   16.4    0.0
 1988 223    11  15.00  12.10   1.80  2.737  1.479  0.000  1.479  0.000   17.9    0.0   17.9    0.0
 1988 224    12  16.30  17.10   4.20  3.293  1.125  0.000  1.125  0.000   19.0    0.0   19.0    0.0
 1988 225    13  15.40  19.60   4.80  3.244  0.945  0.000  0.945  0.000   20.0    0.0   20.0    0.0
 1988 226    14   5.40  17.60   8.70  1.147  0.831  0.000  0.831  0.000   20.8    0.0   20.8    0.0
 1988 227    15   4.80  22.90  14.10  1.146  0.751  0.000  0.751  0.000   21.6    0.0   21.6    0.0
 1988 228    16   8.40  22.90   7.90  1.903  0.690  0.000  0.690  0.000   22.3    0.0   22.3    0.0
 1988 229    17  14.30  18.60   5.40  2.986  0.642  0.000  0.642  0.000   22.9    0.0   22.9    0.0
 1988 230    18  13.30  19.20   3.70  2.756  0.605  0.003  0.602  0.000   23.5    0.0   23.5    0.0
 1988 231    19  15.80  24.40   7.10  3.623  0.575  0.005  0.570  0.000   24.1    0.0   24.1    0.0
 1988 232    20   6.60  26.20  14.50  1.645  0.546  0.005  0.542  0.000   24.6    0.0   24.6    0.0
 1988 233    21  12.30  21.20   9.30  2.756  2.756  0.014  2.743  0.000   27.4    0.0   27.4    0.0
 1988 234    22  17.20  20.20   6.80  3.718  3.543  0.024  3.519  0.000   30.9    0.1   30.9    0.0
 1988 235    23  17.70  22.50   5.20  3.890  3.277  0.029  3.248  0.000   34.2    0.1   34.1    0.0
 1988 236    24  15.90  29.70  14.40  4.120  1.484  0.037  1.447  0.000   35.7    0.1   35.6    0.0
 1988 237    25  12.90  25.30   8.60  3.026  1.148  0.037  1.111  0.000   36.8    0.2   36.7    0.0
 1988 238    26  17.20  17.70   4.90  3.519  1.005  0.067  0.937  0.000   37.8    0.2   37.6    0.0
 1988 239    27  17.30  11.90  -0.30  3.065  0.893  0.067  0.826  0.000   38.7    0.3   38.4    0.0
 1988 240    28  17.00  14.40  -2.00  3.084  0.788  0.042  0.747  0.000   39.5    0.3   39.2    0.0
 1988 241    29  10.80  16.10   0.00  2.059  0.697  0.011  0.687  0.000   40.2    0.3   39.9    0.0
 1988 242    30  14.80  21.90  10.30  3.377  0.653  0.014  0.639  0.000   40.9    0.4   40.5    0.0
 1988 243    31  17.80  20.80   5.50  3.830  0.645  0.045  0.600  0.000   41.5    0.4   41.1    0.0
 1988 244    32  17.70  21.00   5.10  3.802  0.633  0.066  0.568  0.000   42.1    0.5   41.7    0.0
 1988 245    33  18.20  14.50   3.30  3.493  0.620  0.080  0.540  0.000   42.8    0.5   42.2    0.0
 1988 246    34  18.60  12.40  -1.10  3.293  0.592  0.076  0.516  0.000   43.4    0.6   42.7    0.0
 1988 247    35  18.70  14.90  -0.10  3.491  0.536  0.041  0.495  0.000   43.9    0.7   43.2    0.0
 1988 248    36  19.50  20.40   0.60  3.986  0.511  0.034  0.476  0.000   44.4    0.7   43.7    0.0
 1988 249    37   9.30  25.00   7.90  2.161  0.479  0.020  0.460  0.000   44.9    0.7   44.2    0.0
 1988 250    38   7.20  18.90  12.20  1.602  0.475  0.031  0.444  0.000   45.4    0.7   44.6    0.0
 1988 251    39   7.20  20.40  12.10  1.630  1.630  0.046  1.585  0.000   47.0    0.8   46.2    0.0
 1988 252    40  14.20  24.60  14.80  3.461  1.558  0.133  1.425  0.000   48.5    0.9   47.6    0.0
 1988 253    41   7.80  18.40  10.60  1.690  1.690  0.093  1.598  0.000   50.2    1.0   49.2    0.0
 1988 254    42   6.00  12.40   9.70  1.183  1.183  0.074  1.109  0.000   51.4    1.1   50.3    0.0
 1988 255    43  12.40  19.40  10.40  2.715  2.715  0.177  2.537  0.000   54.1    1.3   52.9    0.0
 1988 256    44  18.60  21.30   8.90  4.116  3.532  0.301  3.231  0.000   57.7    1.6   56.1    0.0
 1988 257    45  19.50  22.30   6.00  4.255  3.092  0.361  2.731  0.000   60.8    1.9   58.8    0.0
 1988 258    46  20.80  16.80   4.60  4.140  1.818  0.399  1.419  0.000   62.6    2.3   60.2    0.0
 1988 259    47  21.20  13.20   0.30  3.817  1.483  0.385  1.098  0.000   64.1    2.7   61.3    0.0
 1988 260    48  18.30  13.70   0.90  3.358  1.167  0.238  0.929  0.000   65.2    3.0   62.3    0.0
 1988 261    49  15.90  13.90   2.00  2.968  0.983  0.163  0.820  0.000   66.2    3.1   63.1    0.0
 1988 262    50  11.60  19.40   8.40  2.501  0.864  0.121  0.743  0.000   67.1    3.2   63.8    0.0
 1988 263    51  15.90  23.10   8.40  3.594  0.900  0.217  0.684  0.000   68.0    3.5   64.5    0.0
 1988 264    52  11.10  23.60  13.40  2.627  0.839  0.203  0.637  0.000   68.8    3.7   65.2    0.0
 1988 265    53   6.50  18.00  15.50  1.452  1.452  0.156  1.296  0.000   70.3    3.8   66.5    0.0
 1988 266    54   6.80  19.70  15.50  1.549  1.549  0.188  1.362  0.000   71.8    4.0   67.8    0.0
 1988 267    55  10.80  24.10  15.10  2.584  2.584  0.355  2.230  0.000   74.4    4.4   70.0    0.0
 1988 268    56  12.00  16.80   9.60  2.479  2.479  0.410  2.070  0.000   76.9    4.8   72.1    0.0
 1988 269    57   6.80  17.60   7.00  1.385  1.385  0.242  1.143  0.000   78.3    5.0   73.3    0.0
 1988 270    58   6.70  12.40   9.90  1.299  1.299  0.239  1.060  0.000   79.6    5.2   74.3    0.0
 1988 271    59   9.40  17.70  10.50  1.976  1.976  0.375  1.601  0.000   81.5    5.6   75.9    0.0
 1988 272    60  19.90  17.80   8.30  4.097  4.097  0.822  3.275  0.000   85.6    6.4   79.2    0.0
 1988 273    61  23.60  21.10   8.10  5.066  3.917  1.070  2.847  0.000   89.6    7.5   82.0    0.0
 1988 274    62  24.00  22.30   7.70  5.202  3.372  1.194  2.178  0.000   92.9    8.7   84.2    0.0
 1988 275    63  19.60  26.20  11.60  4.595  2.513  1.173  1.340  0.000   95.4    9.9   85.6    0.0
 1988 276    64  11.90  25.10  13.20  2.773  1.873  0.812  1.061  0.000   97.3   10.7   86.6    0.0
 1988 277    65  17.00  15.70   9.40  3.367  3.367  1.109  2.258  0.000  100.7   11.8   88.9    0.0
 1988 278    66  24.30  20.00   9.30  5.091  5.091  1.756  3.336  0.000  105.8   13.6   92.2    0.0
 1988 279    67  25.20  19.80   7.00  5.142  3.997  1.873  2.124  0.000  109.8   15.4   94.3    0.0
 1988 280    68  25.00  22.10   6.00  5.200  4.176  1.995  2.181  0.000  113.9   17.4   96.5    0.0
 1988 281    69  24.90  24.50   6.60  5.356  3.514  2.174  1.341  0.000  117.5   19.6   97.9    0.0
 1988 282    70  21.80  25.30  10.20  4.864  3.168  2.106  1.062  0.000  120.6   21.7   98.9    0.0
 1988 283    71  11.20  20.90  10.40  2.356  1.993  1.086  0.907  0.000  122.6   22.8   99.8    0.0
 1988 284    72  23.30  21.70   8.20  4.843  3.141  2.336  0.805  0.000  125.8   25.1  100.6    0.0
 1988 285    73  20.90  24.10  11.40  4.592  3.903  2.303  1.600  0.000  129.7   27.4  102.2    0.0
 1988 286    74  25.30  24.10   9.90  5.464  3.677  2.911  0.766  0.000  133.3   30.3  103.0    0.0
 1988 287    75  19.90  19.20   8.30  3.957  2.917  2.215  0.702  0.000  136.3   32.6  103.7    0.0
 1988 288    76  19.90  23.20   8.60  4.174  3.055  2.404  0.651  0.000  139.3   35.0  104.4    0.0
 1988 289    77  20.90  17.50   4.20  3.882  2.929  2.318  0.610  0.000  142.2   37.3  105.0    0.0
 1988 290    78  26.20  19.10   3.10  4.929  3.511  2.935  0.576  0.000  145.8   40.2  105.5    0.0
 1988 291    79  20.70  22.00   4.70  4.129  4.129  2.375  1.754  0.000  149.9   42.6  107.3    0.0
 1988 292    80  24.60  26.50   8.30  5.359  5.359  3.140  2.219  0.000  155.2   45.7  109.5    0.0
 1988 293    81  11.50  21.70  12.30  2.430  2.430  1.484  0.945  0.000  157.7   47.2  110.5    0.0
 1988 294    82  26.50  23.90   9.50  5.604  5.214  3.549  1.666  0.000  162.9   50.8  112.1    0.0
 1988 295    83  23.70  26.60   6.90  5.058  5.058  3.306  1.752  0.000  167.9   54.1  113.9    0.0
 1988 296    84  14.40  27.50  13.90  3.279  3.279  2.207  1.072  0.000  171.2   56.3  114.9    0.0
 1988 297    85  27.40  25.20  12.20  5.963  5.648  4.171  1.477  0.000  176.9   60.4  116.4    0.0
 1988 298    86  25.70  26.50   9.50  5.542  5.114  3.990  1.124  0.000  182.0   64.4  117.5    0.0
 1988 299    87  12.90  18.10  11.20  2.526  2.526  1.863  0.663  0.000  184.5   66.3  118.2    0.0
 1988 300    88  27.30  17.90   6.10  5.078  5.078  3.800  1.278  0.000  189.6   70.1  119.5    0.0
 1988 301    89  27.40  24.60   5.90  5.567  5.567  4.202  1.365  0.000  195.2   74.3  120.9    0.0
 1988 302    90  28.10  28.30   9.00  6.128  6.128  4.695  1.432  0.000  201.3   79.0  122.3    0.0
 1988 303    91  24.80  32.80  12.10  5.824  5.824  4.554  1.271  0.000  207.1   83.5  123.6    0.0
 1988 304    92   9.70  23.70  12.70  2.050  2.050  1.643  0.407  0.000  209.2   85.2  124.0    0.0
 1988 305    93  24.60  20.00  11.60  4.904  4.904  3.993  0.911  0.000  214.1   89.2  124.9    0.0
 1988 306    94  28.90  19.90   8.40  5.585  5.585  4.597  0.988  0.000  219.6   93.8  125.9    0.0
 1988 307    95  29.00  22.30   4.60  5.589  5.589  4.636  0.952  0.000  225.2   98.4  126.8    0.0
 1988 308    96  28.90  24.70   9.90  6.017  6.017  4.998  1.019  0.000  231.2  103.4  127.8    0.0
 1988 309    97  28.20  27.00   9.90  6.032  6.032  5.070  0.963  0.000  237.3  108.5  128.8    0.0
 1988 310    98  29.20  30.20  11.90  6.582  6.582  5.599  0.983  0.000  243.9  114.1  129.8    0.0
 1988 311    99  29.10  31.00  13.00  6.664  6.373  5.750  0.623  0.000  250.2  119.8  130.4    0.0
 1988 312   100  29.30  31.50  14.70  6.823  6.823  5.968  0.855  0.000  257.1  125.8  131.3    0.0
 1988 313   101  22.50  27.00  15.30  4.992  4.992  4.424  0.568  0.000  262.1  130.2  131.8    0.0
 1988 314   102  29.00  26.80  12.30  6.250  6.250  5.676  0.574  0.000  268.3  135.9  132.4    0.0
 1988 315   103  22.10  26.00   7.70  4.535  4.535  4.167  0.368  0.000  272.8  140.1  132.8    0.0
 1988 316   104  19.00  26.10  15.40  4.153  4.153  3.836  0.317  0.000  277.0  143.9  133.1    0.0
 1988 317   105  23.90  25.20  14.90  5.145  5.145  4.777  0.368  0.000  282.1  148.7  133.5    0.0
 1988 318   106  29.90  29.90  12.70  6.683  6.683  6.225  0.457  0.000  288.8  154.9  133.9    0.0
 1988 319   107  29.40  25.20  12.70  6.213  6.213  5.803  0.409  0.000  295.0  160.7  134.3    0.0
 1988 320   108  28.80  27.80  10.60  6.174  6.174  5.775  0.400  0.000  301.2  166.5  134.7    0.0
 1988 321   109  26.70  34.40  13.30  6.301  6.301  5.898  0.403  0.000  307.5  172.4  135.1    0.0
 1988 322   110  28.80  34.60  18.80  7.082  7.082  6.640  0.442  0.000  314.6  179.0  135.6    0.0
 1988 323   111  10.50  26.60  19.00  2.369  2.369  2.225  0.143  0.000  317.0  181.2  135.7    0.0
 1988 324   112  26.30  29.50  19.70  6.161  6.161  5.787  0.374  0.000  323.1  187.0  136.1    0.0
 1988 325   113  21.00  29.40  17.70  4.842  4.842  4.551  0.291  0.000  328.0  191.6  136.4    0.0
 1988 326   114   8.90  22.60  12.10  1.810  1.810  1.703  0.108  0.000  329.8  193.3  136.5    0.0
 1988 327   115  26.30  21.70  11.30  5.253  5.253  4.937  0.316  0.000  335.0  198.2  136.8    0.0
 1988 328   116  30.40  24.80   8.60  6.175  6.175  5.797  0.378  0.000  341.2  204.0  137.2    0.0
 1988 329   117  30.90  26.00  11.70  6.537  6.537  6.131  0.406  0.000  347.7  210.2  137.6    0.0
 1988 330   118  30.80  29.10  11.30  6.741  6.741  6.319  0.422  0.000  354.5  216.5  138.0    0.0
 1988 331   119  17.80  27.70  14.60  3.933  3.933  3.685  0.248  0.000  358.4  220.2  138.2    0.0
 1988 332   120  31.10  21.10   8.60  6.024  6.024  5.630  0.394  0.000  364.4  225.8  138.6    0.0
 1988 333   121  30.50  23.40   8.00  6.059  6.059  5.647  0.412  0.000  370.5  231.4  139.1    0.0
 1988 334   122  30.70  26.50   9.90  6.446  6.446  5.995  0.451  0.000  376.9  237.4  139.5    0.0
 1988 335   123  30.40  28.40  11.90  6.638  6.638  6.161  0.477  0.000  383.6  243.6  140.0    0.0
 1988 336   124  23.90  27.60  15.20  5.306  5.306  4.916  0.391  0.000  388.9  248.5  140.4    0.0
 1988 337   125  26.30  28.80  14.80  5.904  5.904  5.459  0.445  0.000  394.8  254.0  140.8    0.0
 1988 338   126  30.60  32.00  15.50  7.160  7.160  6.609  0.551  0.000  401.9  260.6  141.4    0.0
 1988 339   127  30.40  33.60  17.70  7.356  7.356  6.778  0.578  0.000  409.3  267.4  141.9    0.0
 1988 340   128  33.00  36.70  15.50  8.753  8.753  8.053  0.700  0.000  418.1  275.4  142.6    0.0
 1988 341   129  23.30  35.60  17.20  5.897  5.897  5.417  0.479  0.000  424.0  280.8  143.1    0.0
 1988 342   130  15.50  29.10  17.50  3.567  3.567  3.273  0.294  0.000  427.5  284.1  143.4    0.0
 1988 343   131  22.00  27.60  14.10  4.850  4.850  4.444  0.406  0.000  432.4  288.5  143.8    0.0
 1988 344   132  28.00  28.50  12.60  6.166  6.166  5.643  0.522  0.000  438.5  294.2  144.3    0.0
 1988 345   133  29.00  30.00  11.40  6.440  6.440  5.884  0.556  0.000  445.0  300.1  144.9    0.0
 1988 346   134  31.40  34.00  14.90  7.489  7.489  6.827  0.662  0.000  452.5  306.9  145.6    0.0
 1988 347   135   9.20  23.10  17.90  1.983  1.983  1.804  0.179  0.000  454.4  308.7  145.7    0.0
 1988 348   136  26.80  27.80  17.70  6.095  6.095  5.529  0.566  0.000  460.5  314.2  146.3    0.0
 1988 349   137  31.80  30.00  12.60  7.136  7.136  6.455  0.681  0.000  467.7  320.7  147.0    0.0
 1988 350   138  32.10  28.50  16.40  7.292  7.292  6.576  0.716  0.000  475.0  327.3  147.7    0.0
 1988 351   139  30.60  31.20  12.90  6.983  6.983  6.276  0.707  0.000  482.0  333.5  148.4    0.0
 1988 352   140  19.60  32.50  17.10  4.683  4.683  4.193  0.490  0.000  486.6  337.7  148.9    0.0
 1988 353   141  30.40  30.90  18.10  7.194  7.194  6.414  0.780  0.000  493.8  344.1  149.7    0.0
 1988 354   142  22.30  29.80  16.10  5.140  5.140  4.562  0.578  0.000  499.0  348.7  150.3    0.0
 1988 355   143  30.80  26.10  10.20  6.493  6.493  5.734  0.759  0.000  505.5  354.4  151.0    0.0
 1988 356   144  31.80  28.30  11.00  6.934  6.934  6.090  0.844  0.000  512.4  360.5  151.9    0.0
 1988 357   145  20.30  28.80  20.10  4.776  4.776  4.170  0.605  0.000  517.2  364.7  152.5    0.0
 1988 358   146  27.20  33.60  16.40  6.569  6.569  5.701  0.868  0.000  523.7  370.4  153.3    0.0
 1988 359   147  30.90  34.90  15.40  7.520  7.520  6.483  1.037  0.000  531.3  376.9  154.4    0.0
 1988 360   148  31.80  35.00  19.70  7.991  7.991  6.840  1.151  0.000  539.3  383.7  155.5    0.0
 1988 361   149  26.30  35.60  19.10  6.810  6.810  5.783  1.026  0.000  546.1  389.5  156.6    0.0
 1988 362   150  15.10  30.50  21.00  3.659  3.659  3.081  0.578  0.000  549.7  392.6  157.1    0.0
 1988 363   151  23.50  30.50  18.00  5.578  5.578  4.654  0.923  0.000  555.3  397.2  158.1    0.0
 1988 364   152  30.50  28.00  11.30  6.692  6.692  5.529  1.162  0.000  562.0  402.8  159.2    0.0
 1988 365   153  31.30  29.60  12.20  7.056  7.056  5.769  1.287  0.000  569.0  408.5  160.5    0.0
 1988 366   154  31.50  33.20  16.10  7.623  7.623  6.163  1.460  0.000  576.7  414.7  162.0    0.0
 1989 001   155  30.10  36.10  19.80  8.104  8.104  6.473  1.632  0.000  584.8  421.2  163.6    0.0
 1989 002   156  30.90  36.10  19.20  8.298  7.780  6.542  1.238  0.000  592.6  427.7  164.8    0.0
 1989 003   157  31.30  35.00  16.60  7.785  7.785  6.051  1.733  0.000  600.3  433.8  166.6    0.0
 1989 004   158  31.30  36.30  19.30  8.530  8.530  6.531  1.999  0.000  608.9  440.3  168.6    0.0
 1989 005   159  31.50  35.60  18.80  8.253  8.253  6.218  2.035  0.000  617.1  446.5  170.6    0.0
 1989 006   160  22.70  34.80  19.60  5.784  5.277  4.284  0.994  0.000  622.4  450.8  171.6    0.0
 1989 007   161  20.20  34.10  21.10  5.174  5.174  3.761  1.412  0.000  627.6  454.6  173.0    0.0
 1989 008   162  25.50  32.00  18.80  6.298  6.298  4.490  1.808  0.000  633.9  459.1  174.8    0.0
 1989 009   163  30.40  32.40  14.00  7.298  7.298  5.098  2.200  0.000  641.2  464.2  177.0    0.0
 1989 010   164  26.70  32.60  16.50  6.557  6.524  4.484  2.041  0.000  647.7  468.6  179.1    0.0
 1989 011   165  27.70  32.00  19.00  6.897  6.897  4.612  2.284  0.000  654.6  473.3  181.3    0.0
 1989 012   166  29.90  32.90  16.50  7.400  6.710  4.837  1.873  0.000  661.3  478.1  183.2    0.0
 1989 013   167  29.90  31.60  13.60  7.140  7.140  4.667  2.473  0.000  668.4  482.8  185.7    0.0
 1989 014   168  30.20  32.00  14.10  7.271  7.271  4.753  2.519  0.000  675.7  487.5  188.2    0.0

*DSSAT Cropping System Model Ver. 4.0.2.000               Aug 03, 2016; 15:38:57

*RUN   3        : UYMZ                    
 MODEL          : MZCER040 - Maize           
 EXPERIMENT     : UYMZ0133 MZ    late to create DSS                             
 TREATMENT  1   : UYMZ                    

@YEAR DOY   DAS   SRAA   TMXA   TMNA   EOAA   ETAA   EPAA   ESAA   EFAD   ETAC   EPAC   ESAC   EFAC
 1989 212     0  14.80  15.50   2.00  2.856  2.787  0.000  2.787  0.000    2.8    0.0    2.8    0.0
 1989 213     1  14.50  20.00   3.10  3.023  3.023  0.000  3.023  0.000    5.8    0.0    5.8    0.0
 1989 214     2  14.90  24.80   5.00  3.374  1.567  0.000  1.567  0.000    7.4    0.0    7.4    0.0
 1989 215     3  10.70  26.50  14.80  2.683  1.652  0.000  1.652  0.000    9.0    0.0    9.0    0.0
 1989 216     4   9.30  18.80   9.90  2.030  2.030  0.000  2.030  0.000   11.1    0.0   11.1    0.0
 1989 217     5  15.70  18.60   5.80  3.291  3.291  0.000  3.291  0.000   14.4    0.0   14.4    0.0
 1989 218     6  15.60  21.50   5.30  3.389  2.305  0.000  2.305  0.000   16.7    0.0   16.7    0.0
 1989 219     7  15.80  21.40   6.80  3.474  2.233  0.000  2.233  0.000   18.9    0.0   18.9    0.0
 1989 220     8   4.70  17.70   8.50  0.998  0.998  0.000  0.998  0.000   19.9    0.0   19.9    0.0
 1989 221     9   4.50  15.60  12.70  0.965  0.965  0.000  0.965  0.000   20.9    0.0   20.9    0.0
 1989 222    10   8.40  18.30  11.50  1.848  1.848  0.000  1.848  0.000   22.7    0.0   22.7    0.0
 1989 223    11   5.90  22.30   8.80  1.336  1.336  0.000  1.336  0.000   24.0    0.0   24.0    0.0
 1989 224    12  15.40  19.00   6.80  3.277  3.277  0.000  3.277  0.000   27.3    0.0   27.3    0.0
 1989 225    13  14.90  24.00   8.80  3.450  2.205  0.000  2.205  0.000   29.5    0.0   29.5    0.0
 1989 226    14  16.70  23.60  10.70  3.910  2.100  0.000  2.100  0.000   31.6    0.0   31.6    0.0
 1989 227    15  16.80  24.60   8.30  3.902  1.330  0.007  1.323  0.000   32.9    0.0   32.9    0.0
 1989 228    16  16.60  28.50   9.40  4.083  1.066  0.013  1.053  0.000   34.0    0.0   34.0    0.0
 1989 229    17  13.90  24.70  13.20  3.365  0.920  0.018  0.902  0.000   34.9    0.0   34.9    0.0
 1989 230    18  14.20  30.40  11.80  3.637  0.829  0.028  0.801  0.000   35.8    0.1   35.7    0.0
 1989 231    19   5.00  22.30  14.90  1.191  0.741  0.013  0.728  0.000   36.5    0.1   36.4    0.0
 1989 232    20   5.00  17.20  14.80  1.114  1.114  0.014  1.100  0.000   37.6    0.1   37.5    0.0
 1989 233    21   5.00  18.60  14.00  1.126  1.126  0.021  1.105  0.000   38.7    0.1   38.6    0.0
 1989 234    22   6.10  12.50   6.50  1.173  1.173  0.029  1.143  0.000   39.9    0.1   39.8    0.0
 1989 235    23  12.90  15.80   7.10  2.620  2.620  0.067  2.553  0.000   42.5    0.2   42.3    0.0
 1989 236    24   8.40  17.30   5.90  1.723  1.723  0.048  1.675  0.000   44.3    0.3   44.0    0.0
 1989 237    25  17.50  16.00   6.50  3.542  2.421  0.110  2.310  0.000   46.7    0.4   46.3    0.0
 1989 238    26  11.00  19.60   3.30  2.273  2.273  0.077  2.195  0.000   49.0    0.4   48.5    0.0
 1989 239    27  18.90  14.10   2.60  3.572  1.471  0.125  1.346  0.000   50.4    0.6   49.9    0.0
 1989 240    28  18.10  18.40   1.30  3.605  1.181  0.117  1.064  0.000   51.6    0.7   50.9    0.0
 1989 241    29  19.10  25.40   5.80  4.370  1.030  0.122  0.909  0.000   52.6    0.8   51.8    0.0
 1989 242    30  11.40  26.50   0.00  2.512  0.900  0.094  0.806  0.000   53.5    0.9   52.6    0.0
 1989 243    31   6.70  14.30   9.00  1.356  1.356  0.039  1.317  0.000   54.9    0.9   53.9    0.0
 1989 244    32  19.00  15.20   6.70  3.807  3.807  0.124  3.683  0.000   58.7    1.1   57.6    0.0
 1989 245    33  19.20  17.20   2.50  3.799  2.735  0.140  2.596  0.000   61.4    1.2   60.2    0.0
 1989 246    34  18.70  22.40   6.40  4.131  2.396  0.146  2.251  0.000   63.8    1.4   62.5    0.0
 1989 247    35  19.00  26.20  10.70  4.564  1.556  0.202  1.354  0.000   65.4    1.6   63.8    0.0
 1989 248    36   9.00  16.80  10.50  1.905  1.182  0.114  1.068  0.000   66.6    1.7   64.9    0.0
 1989 249    37  18.20  14.90   6.50  3.604  3.604  0.244  3.360  0.000   70.2    1.9   68.3    0.0
 1989 250    38  20.10  17.60   4.70  4.066  3.506  0.295  3.211  0.000   73.7    2.2   71.5    0.0
 1989 251    39  16.00  18.00   2.20  3.175  3.005  0.245  2.759  0.000   76.7    2.5   74.2    0.0
 1989 252    40  15.40  19.50   8.70  3.322  1.655  0.234  1.421  0.000   78.3    2.7   75.7    0.0
 1989 253    41  10.90  19.70   8.30  2.346  1.289  0.190  1.100  0.000   79.6    2.9   76.8    0.0
 1989 254    42   6.40  18.80  12.10  1.406  1.406  0.128  1.278  0.000   81.0    3.0   78.0    0.0
 1989 255    43   6.30  19.10  13.20  1.400  1.400  0.145  1.255  0.000   82.4    3.2   79.3    0.0
 1989 256    44   6.10  15.90  13.00  1.294  1.294  0.153  1.141  0.000   83.7    3.3   80.4    0.0
 1989 257    45   9.10  16.30  11.40  1.909  1.860  0.248  1.612  0.000   85.6    3.6   82.0    0.0
 1989 258    46  19.60  15.10   7.40  3.885  2.548  0.548  2.000  0.000   88.1    4.1   84.0    0.0
 1989 259    47  14.10  17.60   6.40  2.866  1.715  0.425  1.289  0.000   89.9    4.5   85.3    0.0
 1989 260    48  21.80  20.00   3.90  4.472  1.739  0.703  1.036  0.000   91.6    5.2   86.4    0.0
 1989 261    49  22.00  21.70   6.00  4.707  1.650  0.759  0.891  0.000   93.2    6.0   87.3    0.0
 1989 262    50  21.70  24.80  10.60  5.019  1.678  0.884  0.794  0.000   94.9    6.9   88.0    0.0
 1989 263    51  22.30  25.50   8.30  5.086  1.739  1.016  0.723  0.000   96.7    7.9   88.8    0.0
 1989 264    52  20.10  26.10  10.00  4.667  1.710  1.042  0.668  0.000   98.4    8.9   89.4    0.0
 1989 265    53   7.10  18.60  15.20  1.561  1.561  0.389  1.171  0.000   99.9    9.3   90.6    0.0
 1989 266    54   7.80  16.90  10.30  1.599  1.599  0.432  1.166  0.000  101.5    9.8   91.8    0.0
 1989 267    55  10.50  11.20   7.20  1.916  1.916  0.544  1.372  0.000  103.4   10.3   93.1    0.0
 1989 268    56  14.00  12.60   5.70  2.570  2.570  0.735  1.835  0.000  106.0   11.0   95.0    0.0
 1989 269    57  17.20  14.40   4.80  3.215  2.952  0.931  2.021  0.000  109.0   12.0   97.0    0.0
 1989 270    58  23.20  13.70   3.90  4.249  4.249  1.240  3.009  0.000  113.2   13.2  100.0    0.0
 1989 271    59  15.30  17.00   3.20  2.927  2.317  0.839  1.478  0.000  115.5   14.0  101.5    0.0
 1989 272    60  23.60  18.40   3.60  4.635  2.401  1.276  1.125  0.000  117.9   15.3  102.6    0.0
 1989 273    61  21.10  22.20   7.70  4.538  2.178  1.232  0.945  0.000  120.1   16.5  103.6    0.0
 1989 274    62  18.80  26.00   9.20  4.285  2.094  1.263  0.831  0.000  122.2   17.8  104.4    0.0
 1989 275    63   9.50  26.40  11.90  2.214  1.472  0.721  0.751  0.000  123.7   18.5  105.1    0.0
 1989 276    64  23.50  21.60   9.40  5.023  2.493  1.804  0.690  0.000  126.2   20.3  105.8    0.0
 1989 277    65  24.20  21.70   7.50  5.074  2.590  1.949  0.642  0.000  128.8   22.3  106.5    0.0
 1989 278    66  24.00  25.00   8.80  5.293  2.757  2.155  0.602  0.000  131.5   24.4  107.1    0.0
 1989 279    67  20.30  24.60   8.80  4.434  2.509  1.940  0.570  0.000  134.0   26.4  107.6    0.0
 1989 280    68  17.50  22.60  12.20  3.821  3.821  1.766  2.056  0.000  137.8   28.1  109.7    0.0
 1989 281    69  20.40  20.00  10.30  4.220  2.712  2.061  0.650  0.000  140.6   30.2  110.4    0.0
 1989 282    70  24.60  20.50   6.20  4.923  3.111  2.502  0.610  0.000  143.7   32.7  111.0    0.0
 1989 283    71  17.50  22.60   7.50  3.635  2.487  1.911  0.576  0.000  146.2   34.6  111.5    0.0
 1989 284    72  12.90  20.70  12.50  2.721  2.721  1.490  1.231  0.000  148.9   36.1  112.8    0.0
 1989 285    73  11.90  12.60   7.20  2.125  2.125  1.216  0.908  0.000  151.0   37.3  113.7    0.0
 1989 286    74  15.40  17.70   4.10  2.874  2.874  1.659  1.215  0.000  153.9   39.0  114.9    0.0
 1989 287    75  24.30  20.40   7.40  4.860  4.860  2.794  2.066  0.000  158.7   41.8  117.0    0.0
 1989 288    76  23.80  23.40   8.40  4.985  4.894  2.946  1.948  0.000  163.6   44.7  118.9    0.0
 1989 289    77  26.20  21.80   9.90  5.428  5.428  3.320  2.108  0.000  169.1   48.0  121.0    0.0
 1989 290    78  15.80  19.50   9.90  3.166  3.166  1.998  1.168  0.000  172.2   50.0  122.2    0.0
 1989 291    79  20.40  22.40   9.70  4.230  4.211  2.735  1.475  0.000  176.4   52.8  123.7    0.0
 1989 292    80  25.10  25.00  12.60  5.496  4.776  3.653  1.124  0.000  181.2   56.4  124.8    0.0
 1989 293    81  25.20  28.00  11.10  5.633  4.818  3.874  0.944  0.000  186.0   60.3  125.7    0.0
 1989 294    82  16.60  27.00  12.40  3.692  3.692  2.624  1.069  0.000  189.7   62.9  126.8    0.0
 1989 295    83  26.90  26.50  11.10  5.867  5.867  4.295  1.572  0.000  195.6   67.2  128.4    0.0
 1989 296    84  26.40  29.50  12.20  6.003  6.003  4.504  1.499  0.000  201.6   71.7  129.9    0.0
 1989 297    85   7.90  22.20  16.70  1.701  1.701  1.311  0.391  0.000  203.3   73.0  130.3    0.0
 1989 298    86   9.30  21.40  15.30  1.957  1.957  1.532  0.425  0.000  205.3   74.6  130.7    0.0
 1989 299    87  20.80  19.10  10.40  4.064  4.064  3.235  0.829  0.000  209.3   77.8  131.5    0.0
 1989 300    88  27.50  20.80   7.40  5.345  5.345  4.300  1.045  0.000  214.7   82.1  132.6    0.0
 1989 301    89  28.20  22.80   8.80  5.693  5.693  4.615  1.078  0.000  220.4   86.7  133.6    0.0
 1989 302    90  27.50  28.80  10.70  6.068  6.068  4.974  1.094  0.000  226.4   91.7  134.7    0.0
 1989 303    91  11.30  22.00  13.60  2.345  2.345  1.953  0.392  0.000  228.8   93.6  135.1    0.0
 1989 304    92  26.00  20.70  10.30  5.150  5.150  4.342  0.809  0.000  233.9   98.0  135.9    0.0
 1989 305    93  27.70  21.20   7.00  5.359  5.338  4.555  0.783  0.000  239.3  102.5  136.7    0.0
 1989 306    94   9.20  20.10  11.70  1.820  1.820  1.610  0.209  0.000  241.1  104.2  136.9    0.0
 1989 307    95  12.60  20.50  13.50  2.542  2.542  2.266  0.276  0.000  243.6  106.4  137.2    0.0
 1989 308    96  28.90  23.10  13.30  6.010  6.010  5.398  0.611  0.000  249.6  111.8  137.8    0.0
 1989 309    97  28.80  21.90  12.30  5.844  5.844  5.293  0.551  0.000  255.5  117.1  138.4    0.0
 1989 310    98  29.10  25.30   9.50  6.016  6.016  5.479  0.537  0.000  261.5  122.6  138.9    0.0
 1989 311    99  14.50  24.60  14.00  3.082  3.082  2.820  0.262  0.000  264.6  125.4  139.2    0.0
 1989 312   100  26.00  27.30  13.40  5.678  5.678  5.218  0.460  0.000  270.2  130.6  139.6    0.0
 1989 313   101  28.70  28.00  15.40  6.415  6.415  5.920  0.495  0.000  276.7  136.5  140.1    0.0
 1989 314   102  25.10  29.70  15.90  5.739  5.739  5.317  0.423  0.000  282.4  141.9  140.5    0.0
 1989 315   103   8.80  23.30  18.10  1.899  1.899  1.766  0.134  0.000  284.3  143.6  140.7    0.0
 1989 316   104   8.50  19.60  11.70  1.660  1.660  1.544  0.116  0.000  286.0  145.2  140.8    0.0
 1989 317   105  24.50  18.20  10.70  4.653  4.653  4.331  0.322  0.000  290.6  149.5  141.1    0.0
 1989 318   106  29.70  24.00   9.50  6.024  6.024  5.607  0.417  0.000  296.6  155.1  141.5    0.0
 1989 319   107  29.40  28.10  12.00  6.399  6.399  5.960  0.439  0.000  303.0  161.1  142.0    0.0
 1989 320   108  29.30  23.30  11.20  5.974  5.974  5.570  0.404  0.000  309.0  166.6  142.4    0.0
 1989 321   109  29.70  25.00   9.40  6.093  6.093  5.685  0.409  0.000  315.1  172.3  142.8    0.0
 1989 322   110  28.70  30.20  11.80  6.391  6.391  5.964  0.427  0.000  321.5  178.3  143.2    0.0
 1989 323   111  22.90  31.00  15.60  5.295  5.295  4.948  0.348  0.000  326.8  183.2  143.6    0.0
 1989 324   112  20.40  28.10  17.40  4.627  4.627  4.330  0.297  0.000  331.4  187.6  143.8    0.0
 1989 325   113  24.20  29.60  17.70  5.594  5.594  5.242  0.352  0.000  337.0  192.8  144.2    0.0
 1989 326   114  26.40  32.90  18.60  6.367  6.367  5.974  0.392  0.000  343.4  198.8  144.6    0.0
 1989 327   115  24.40  30.80  18.50  5.750  5.750  5.385  0.364  0.000  349.1  204.2  145.0    0.0
 1989 328   116  30.20  23.60  15.50  6.402  6.402  5.985  0.417  0.000  355.5  210.2  145.4    0.0
 1989 329   117  24.00  25.20  13.90  5.121  5.121  4.781  0.340  0.000  360.6  214.9  145.7    0.0
 1989 330   118  22.90  26.50  14.70  4.996  4.996  4.658  0.338  0.000  365.6  219.6  146.1    0.0
 1989 331   119  25.10  24.50  14.20  5.326  5.326  4.959  0.367  0.000  371.0  224.6  146.4    0.0
 1989 332   120  29.70  26.00  11.20  6.264  6.264  5.826  0.438  0.000  377.2  230.4  146.9    0.0
 1989 333   121  21.60  26.90  14.40  4.725  4.725  4.390  0.336  0.000  382.0  234.8  147.2    0.0
 1989 334   122  28.10  29.40  16.20  6.416  6.416  5.954  0.462  0.000  388.4  240.7  147.7    0.0
 1989 335   123  27.00  31.50  17.60  6.377  6.377  5.912  0.465  0.000  394.8  246.6  148.1    0.0
 1989 336   124  18.80  30.80  18.80  4.446  4.446  4.118  0.328  0.000  399.2  250.8  148.4    0.0
 1989 337   125  17.30  26.80  16.50  3.845  3.845  3.558  0.287  0.000  403.0  254.3  148.7    0.0
 1989 338   126  30.10  25.80  13.30  6.446  6.446  5.961  0.485  0.000  409.5  260.3  149.2    0.0
 1989 339   127  25.80  31.30  14.00  5.923  5.923  5.473  0.450  0.000  415.4  265.7  149.7    0.0
 1989 340   128  22.10  29.50  18.30  5.135  5.135  4.740  0.395  0.000  420.5  270.5  150.1    0.0
 1989 341   129  25.70  29.80  19.20  6.032  6.032  5.561  0.471  0.000  426.6  276.0  150.5    0.0
 1989 342   130  28.40  30.80  18.50  6.706  6.706  6.174  0.532  0.000  433.3  282.2  151.1    0.0
 1989 343   131  18.10  30.50  18.90  4.273  4.273  3.928  0.346  0.000  437.6  286.1  151.4    0.0
 1989 344   132  29.50  32.40  18.80  7.106  7.106  6.519  0.587  0.000  444.7  292.7  152.0    0.0
 1989 345   133  27.50  33.80  20.30  6.797  6.797  6.222  0.575  0.000  451.5  298.9  152.6    0.0
 1989 346   134  30.00  33.70  20.50  7.420  7.420  6.776  0.644  0.000  458.9  305.7  153.2    0.0
 1989 347   135  29.00  32.40  19.40  7.022  7.022  6.396  0.626  0.000  465.9  312.1  153.8    0.0
 1989 348   136  30.40  30.30  19.60  7.209  7.209  6.547  0.662  0.000  473.1  318.6  154.5    0.0
 1989 349   137  31.40  31.70  16.10  7.374  7.374  6.674  0.700  0.000  480.5  325.3  155.2    0.0
 1989 350   138  25.70  33.60  19.90  6.333  6.333  5.711  0.622  0.000  486.8  331.0  155.8    0.0
 1989 351   139  18.00  24.40  13.70  3.816  3.816  3.427  0.389  0.000  490.6  334.4  156.2    0.0
 1989 352   140  30.70  25.20   9.20  6.337  6.337  5.665  0.672  0.000  497.0  340.1  156.9    0.0
 1989 353   141  31.40  27.20  14.50  6.936  6.936  6.170  0.766  0.000  503.9  346.3  157.7    0.0
 1989 354   142  31.80  26.50  13.60  6.922  6.922  6.125  0.797  0.000  510.8  352.4  158.5    0.0
 1989 355   143  31.30  26.00  12.60  6.723  6.723  5.915  0.808  0.000  517.6  358.3  159.3    0.0
 1989 356   144  31.50  29.00  12.10  6.990  6.990  6.111  0.879  0.000  524.5  364.4  160.1    0.0
 1989 357   145  30.80  29.50  14.20  6.992  6.992  6.072  0.920  0.000  531.5  370.5  161.1    0.0
 1989 358   146  29.70  31.50  16.20  7.006  6.927  6.041  0.887  0.000  538.5  376.5  161.9    0.0
 1989 359   147   9.80  29.50  19.10  2.312  2.312  1.978  0.334  0.000  540.8  378.5  162.3    0.0
 1989 360   148  20.60  30.70  18.80  4.919  4.919  4.172  0.747  0.000  545.7  382.7  163.0    0.0
 1989 361   149  15.80  30.10  19.50  3.772  3.772  3.169  0.602  0.000  549.5  385.8  163.6    0.0
 1989 362   150  22.50  30.90  20.00  5.444  5.444  4.530  0.914  0.000  554.9  390.4  164.5    0.0
 1989 363   151  17.70  28.90  20.60  4.214  4.214  3.469  0.744  0.000  559.1  393.8  165.3    0.0
 1989 364   152  20.90  28.00  19.30  4.886  4.886  3.977  0.909  0.000  564.0  397.8  166.2    0.0
 1989 365   153  24.80  29.80  17.50  5.845  5.845  4.699  1.146  0.000  569.9  402.5  167.3    0.0
 1990 001   154  28.40  29.80  12.60  6.460  6.460  5.125  1.335  0.000  576.3  407.6  168.7    0.0
 1990 002   155  28.70  29.80  15.10  6.665  6.665  5.212  1.453  0.000  583.0  412.9  170.1    0.0
 1990 003   156  31.30  30.10  15.30  7.317  6.809  5.635  1.174  0.000  589.8  418.5  171.3    0.0
 1990 004   157  31.30  33.40  16.90  7.691  7.691  5.826  1.865  0.000  597.5  424.3  173.2    0.0
 1990 005   158  31.30  33.70  18.10  7.798  7.798  5.802  1.996  0.000  605.3  430.1  175.2    0.0
 1990 006   159  31.50  34.00  18.00  7.883  7.883  5.755  2.129  0.000  613.2  435.9  177.3    0.0
 1990 007   160  28.90  34.40  19.00  7.330  6.500  5.244  1.256  0.000  619.7  441.1  178.6    0.0
 1990 008   161  20.20  30.90  20.00  4.982  4.982  3.490  1.493  0.000  624.6  444.6  180.0    0.0
 1990 009   162  24.60  29.00  15.90  5.764  5.764  4.037  1.727  0.000  630.4  448.6  181.8    0.0
 1990 010   163  25.50  29.50  14.00  5.923  5.923  4.148  1.774  0.000  636.3  452.8  183.5    0.0

*DSSAT Cropping System Model Ver. 4.0.2.000               Aug 03, 2016; 15:38:57

*RUN   4        : UYMZ                    
 MODEL          : MZCER040 - Maize           
 EXPERIMENT     : UYMZ0133 MZ    late to create DSS                             
 TREATMENT  1   : UYMZ                    

@YEAR DOY   DAS   SRAA   TMXA   TMNA   EOAA   ETAA   EPAA   ESAA   EFAD   ETAC   EPAC   ESAC   EFAC
 1990 212     0  13.00  14.90  -1.90  2.385  2.385  0.000  2.385  0.000    2.4    0.0    2.4    0.0
 1990 213     1  13.00  17.50   3.80  2.632  2.079  0.000  2.079  0.000    4.5    0.0    4.5    0.0
 1990 214     2  14.40  19.90   3.70  3.014  2.768  0.000  2.768  0.000    7.2    0.0    7.2    0.0
 1990 215     3  14.80  21.50   5.00  3.206  1.782  0.000  1.782  0.000    9.0    0.0    9.0    0.0
 1990 216     4  14.80  21.90   5.70  3.244  3.244  0.000  3.244  0.000   12.3    0.0   12.3    0.0
 1990 217     5  14.50  25.90  10.20  3.479  2.477  0.000  2.477  0.000   14.7    0.0   14.7    0.0
 1990 218     6  15.60  23.40  13.90  3.741  2.306  0.000  2.306  0.000   17.0    0.0   17.0    0.0
 1990 219     7  15.20  25.90  14.40  3.773  1.364  0.000  1.364  0.000   18.4    0.0   18.4    0.0
 1990 220     8  12.90  25.00  12.80  3.127  1.073  0.000  1.073  0.000   19.5    0.0   19.5    0.0
 1990 221     9  14.70  20.50  10.30  3.295  1.600  0.000  1.600  0.000   21.1    0.0   21.1    0.0
 1990 222    10  15.10  22.30   8.90  3.423  0.968  0.000  0.968  0.000   22.0    0.0   22.0    0.0
 1990 223    11  15.40  28.00  11.90  3.842  0.852  0.006  0.846  0.000   22.9    0.0   22.9    0.0
 1990 224    12  15.30  28.40  12.10  3.840  0.775  0.014  0.762  0.000   23.7    0.0   23.7    0.0
 1990 225    13  14.50  28.00  12.80  3.640  0.720  0.022  0.698  0.000   24.4    0.0   24.4    0.0
 1990 226    14   5.20  25.80  14.90  1.293  0.660  0.011  0.649  0.000   25.1    0.1   25.0    0.0
 1990 227    15   7.50  15.80  10.50  1.577  1.577  0.018  1.559  0.000   26.6    0.1   26.6    0.0
 1990 228    16  14.80  18.90   8.50  3.189  3.189  0.040  3.149  0.000   29.8    0.1   29.7    0.0
 1990 229    17  16.80  21.40   7.70  3.716  2.767  0.051  2.716  0.000   32.6    0.2   32.4    0.0
 1990 230    18  16.20  20.80   6.00  3.498  2.422  0.067  2.355  0.000   35.0    0.2   34.8    0.0
 1990 231    19  12.80  20.80  10.40  2.873  1.441  0.069  1.372  0.000   36.4    0.3   36.2    0.0
 1990 232    20  17.30  21.00  10.30  3.885  1.197  0.120  1.077  0.000   37.6    0.4   37.2    0.0
 1990 233    21  14.80  20.90   6.70  3.211  1.039  0.123  0.916  0.000   38.7    0.5   38.1    0.0
 1990 234    22  13.00  18.40   8.30  2.763  0.934  0.123  0.811  0.000   39.6    0.7   39.0    0.0
 1990 235    23  17.00  15.60   4.40  3.341  0.904  0.168  0.736  0.000   40.5    0.8   39.7    0.0
 1990 236    24  11.20  18.10   3.70  2.267  0.796  0.117  0.678  0.000   41.3    0.9   40.4    0.0
 1990 237    25  13.00  24.60   9.60  3.030  0.791  0.159  0.632  0.000   42.1    1.1   41.0    0.0
 1990 238    26  16.40  25.50  11.70  3.926  0.845  0.250  0.595  0.000   43.0    1.4   41.6    0.0
 1990 239    27   6.80  17.60   5.50  1.385  1.385  0.108  1.277  0.000   44.3    1.5   42.9    0.0
 1990 240    28  18.80   9.70   2.00  3.264  3.264  0.268  2.996  0.000   47.6    1.7   45.9    0.0
 1990 241    29  17.80  14.60  -1.20  3.241  3.236  0.225  3.011  0.000   50.8    2.0   48.9    0.0
 1990 242    30  16.80  21.80   2.90  3.566  3.566  0.124  3.442  0.000   54.4    2.1   52.3    0.0
 1990 243    31   5.50  11.80   5.50  1.033  1.033  0.039  0.994  0.000   55.4    2.1   53.3    0.0
 1990 244    32  10.70  10.20   0.80  1.860  1.860  0.073  1.788  0.000   57.3    2.2   55.1    0.0
 1990 245    33  17.70  11.60  -2.30  3.048  1.620  0.087  1.532  0.000   58.9    2.3   56.6    0.0
 1990 246    34  19.80  16.80   2.50  3.911  1.183  0.036  1.148  0.000   60.1    2.3   57.8    0.0
 1990 247    35   5.60  16.40   7.10  1.150  0.972  0.014  0.959  0.000   61.1    2.3   58.7    0.0
 1990 248    36   6.00  18.60  13.40  1.344  0.864  0.023  0.840  0.000   61.9    2.4   59.6    0.0
 1990 249    37   5.70  15.40  13.40  1.221  0.837  0.037  0.800  0.000   62.8    2.4   60.4    0.0
 1990 250    38   5.80  15.90  12.80  1.242  0.962  0.051  0.911  0.000   63.7    2.4   61.3    0.0
 1990 251    39   5.80  14.30  10.30  1.185  1.185  0.055  1.131  0.000   64.9    2.5   62.4    0.0
 1990 252    40  19.70  23.50   7.80  4.460  4.460  0.225  4.235  0.000   69.4    2.7   66.7    0.0
 1990 253    41  15.20  27.50  11.60  3.725  2.584  0.239  2.346  0.000   72.0    3.0   69.0    0.0
 1990 254    42   9.60  23.10  10.70  2.201  2.201  0.213  1.988  0.000   74.2    3.2   71.0    0.0
 1990 255    43  17.10  13.80   5.20  3.264  3.264  0.381  2.883  0.000   77.4    3.6   73.9    0.0
 1990 256    44  18.80  11.80   2.70  3.386  2.645  0.405  2.240  0.000   80.1    4.0   76.1    0.0
 1990 257    45  20.40  14.20   0.50  3.736  2.967  0.407  2.561  0.000   83.0    4.4   78.7    0.0
 1990 258    46  21.40  18.40   3.40  4.320  1.746  0.345  1.401  0.000   84.8    4.7   80.1    0.0
 1990 259    47  17.80  21.60   7.90  3.914  1.416  0.326  1.090  0.000   86.2    5.0   81.2    0.0
 1990 260    48  10.60  17.70  10.60  2.260  1.153  0.228  0.924  0.000   87.4    5.3   82.1    0.0
 1990 261    49   9.30  17.90  11.00  1.991  1.991  0.231  1.760  0.000   89.4    5.5   83.9    0.0
 1990 262    50  13.80  17.70  10.00  2.913  2.913  0.383  2.529  0.000   92.3    5.9   86.4    0.0
 1990 263    51   6.40  17.90  13.30  1.392  1.392  0.204  1.188  0.000   93.7    6.1   87.6    0.0
 1990 264    52   6.40  20.50  15.80  1.464  1.193  0.264  0.929  0.000   94.8    6.3   88.5    0.0
 1990 265    53  20.10  18.60   9.20  4.221  3.954  0.838  3.117  0.000   98.8    7.2   91.6    0.0
 1990 266    54  18.60  13.50   5.40  3.489  2.195  0.752  1.443  0.000  101.0    7.9   93.1    0.0
 1990 267    55  22.30  15.00   3.20  4.182  2.030  0.920  1.109  0.000  103.0    8.9   94.2    0.0
 1990 268    56  23.20  16.30   3.10  4.439  1.872  0.936  0.936  0.000  104.9    9.8   95.1    0.0
 1990 269    57  23.40  20.50   5.10  4.855  1.808  0.983  0.825  0.000  106.7   10.8   95.9    0.0
 1990 270    58  21.30  24.00   8.90  4.775  1.803  1.057  0.746  0.000  108.5   11.8   96.7    0.0
 1990 271    59   6.80  21.70  12.20  1.515  1.070  0.384  0.686  0.000  109.6   12.2   97.4    0.0
 1990 272    60  19.30  22.00  11.30  4.269  1.816  1.177  0.639  0.000  111.4   13.4   98.0    0.0
 1990 273    61  19.30  25.20   8.90  4.336  1.933  1.333  0.600  0.000  113.3   14.7   98.6    0.0
 1990 274    62  21.70  28.10  12.90  5.194  2.315  1.747  0.568  0.000  115.6   16.5   99.2    0.0
 1990 275    63  24.20  24.00  11.90  5.432  2.602  2.062  0.540  0.000  118.2   18.5   99.7    0.0
 1990 276    64  21.80  26.60  13.30  5.085  2.600  2.084  0.516  0.000  120.8   20.6  100.2    0.0
 1990 277    65  17.90  30.10  17.50  4.465  2.487  1.992  0.495  0.000  123.3   22.6  100.7    0.0
 1990 278    66   7.10  19.10  17.30  1.539  1.249  0.773  0.476  0.000  124.6   23.4  101.2    0.0
 1990 279    67   9.40  22.70  17.20  2.119  2.119  1.127  0.992  0.000  126.7   24.5  102.2    0.0
 1990 280    68   7.20  21.60  17.70  1.599  1.599  0.908  0.691  0.000  128.3   25.4  102.9    0.0
 1990 281    69  11.50  20.40  13.70  2.424  2.424  1.442  0.982  0.000  130.7   26.9  103.9    0.0
 1990 282    70  23.40  22.30   9.50  4.860  4.860  2.994  1.866  0.000  135.6   29.9  105.7    0.0
 1990 283    71  21.00  22.30  11.30  4.417  4.417  2.806  1.611  0.000  140.0   32.7  107.3    0.0
 1990 284    72   9.00  22.10  14.50  1.934  1.934  1.268  0.666  0.000  141.9   33.9  108.0    0.0
 1990 285    73  25.50  19.40  11.30  5.131  5.131  3.480  1.651  0.000  147.1   37.4  109.7    0.0
 1990 286    74  26.10  21.60   7.60  5.222  5.222  3.619  1.602  0.000  152.3   41.0  111.3    0.0
 1990 287    75  24.80  22.60  11.50  5.190  5.190  3.663  1.527  0.000  157.5   44.7  112.8    0.0
 1990 288    76  25.50  20.10   8.90  5.036  4.966  3.639  1.326  0.000  162.4   48.3  114.1    0.0
 1990 289    77  26.40  20.50   5.00  5.052  5.052  3.707  1.345  0.000  167.5   52.0  115.5    0.0
 1990 290    78  15.20  21.40   8.90  3.047  3.047  2.254  0.793  0.000  170.5   54.3  116.2    0.0
 1990 291    79  24.50  24.40  14.30  5.330  5.330  4.005  1.325  0.000  175.9   58.3  117.6    0.0
 1990 292    80  17.30  24.00  15.30  3.766  3.766  2.897  0.869  0.000  179.6   61.2  118.4    0.0
 1990 293    81  16.40  23.70  15.70  3.560  3.560  2.798  0.762  0.000  183.2   64.0  119.2    0.0
 1990 294    82  22.20  24.00  14.20  4.767  4.767  3.822  0.945  0.000  188.0   67.8  120.1    0.0
 1990 295    83  27.10  24.80  13.10  5.813  5.813  4.740  1.073  0.000  193.8   72.6  121.2    0.0
 1990 296    84  21.10  25.60  13.10  4.562  4.562  3.778  0.784  0.000  198.3   76.3  122.0    0.0
 1990 297    85  20.80  22.20  13.80  4.330  4.330  3.638  0.692  0.000  202.7   80.0  122.7    0.0
 1990 298    86  14.30  24.70  11.80  3.016  3.016  2.564  0.452  0.000  205.7   82.5  123.2    0.0
 1990 299    87  25.10  27.10  16.30  5.640  5.640  4.848  0.792  0.000  211.3   87.4  123.9    0.0
 1990 300    88  19.60  28.30  17.00  4.482  4.451  3.906  0.546  0.000  215.8   91.3  124.5    0.0
 1990 301    89   8.80  23.80  18.50  1.929  1.929  1.703  0.225  0.000  217.7   93.0  124.7    0.0
 1990 302    90  12.20  27.40  20.40  2.826  2.826  2.510  0.316  0.000  220.5   95.5  125.0    0.0
 1990 303    91  26.40  28.80  17.90  6.087  6.087  5.481  0.607  0.000  226.6  101.0  125.6    0.0
 1990 304    92  26.50  23.20  15.80  5.620  5.620  5.137  0.482  0.000  232.2  106.1  126.1    0.0
 1990 305    93  23.10  24.10  16.70  4.983  4.983  4.591  0.392  0.000  237.2  110.7  126.5    0.0
 1990 306    94  20.10  27.00  14.30  4.400  4.400  4.078  0.322  0.000  241.6  114.8  126.8    0.0
 1990 307    95  11.80  28.10  20.80  2.747  2.747  2.558  0.189  0.000  244.4  117.3  127.0    0.0
 1990 308    96  21.00  22.20  10.80  4.207  4.207  3.926  0.281  0.000  248.6  121.3  127.3    0.0
 1990 309    97  28.80  19.00   6.40  5.314  5.314  4.966  0.348  0.000  253.9  126.2  127.7    0.0
 1990 310    98  17.40  21.20   9.80  3.411  3.411  3.188  0.222  0.000  257.3  129.4  127.9    0.0
 1990 311    99  23.40  23.50  13.50  4.874  4.874  4.560  0.314  0.000  262.2  134.0  128.2    0.0
 1990 312   100   8.40  18.40  11.30  1.607  1.607  1.506  0.101  0.000  263.8  135.5  128.3    0.0
 1990 313   101  16.20  22.30  15.10  3.368  3.368  3.157  0.211  0.000  267.1  138.6  128.5    0.0
 1990 314   102  21.20  24.80  13.70  4.492  4.492  4.216  0.276  0.000  271.6  142.9  128.8    0.0
 1990 315   103  23.60  27.00  15.30  5.198  5.198  4.885  0.313  0.000  276.8  147.8  129.1    0.0
 1990 316   104  12.20  24.60  14.20  2.588  2.588  2.436  0.153  0.000  279.4  150.2  129.2    0.0
 1990 317   105  26.70  34.90  18.50  6.569  6.569  6.186  0.383  0.000  286.0  156.4  129.6    0.0
 1990 318   106  15.90  33.00  20.80  3.896  3.896  3.677  0.219  0.000  289.9  160.0  129.8    0.0
 1990 319   107   8.60  23.20  17.30  1.838  1.838  1.737  0.101  0.000  291.7  161.8  129.9    0.0
 1990 320   108  17.60  22.10  12.20  3.558  3.558  3.362  0.196  0.000  295.3  165.1  130.1    0.0
 1990 321   109  28.70  26.10   9.30  5.955  5.955  5.627  0.329  0.000  301.2  170.8  130.5    0.0
 1990 322   110  27.80  29.70  16.50  6.370  6.370  6.018  0.351  0.000  307.6  176.8  130.8    0.0
 1990 323   111  27.10  33.40  21.80  6.715  6.715  6.334  0.381  0.000  314.3  183.1  131.2    0.0
 1990 324   112  12.20  28.00  21.10  2.839  2.839  2.674  0.166  0.000  317.2  185.8  131.4    0.0
 1990 325   113  30.70  28.70  18.80  7.080  7.080  6.659  0.421  0.000  324.2  192.5  131.8    0.0
 1990 326   114  28.10  28.00  15.30  6.262  6.262  5.883  0.379  0.000  330.5  198.3  132.2    0.0
 1990 327   115  29.80  28.20  14.20  6.601  6.601  6.194  0.406  0.000  337.1  204.5  132.6    0.0
 1990 328   116  25.60  28.70  16.80  5.818  5.818  5.455  0.364  0.000  342.9  210.0  132.9    0.0
 1990 329   117  20.10  29.20  18.20  4.643  4.643  4.349  0.294  0.000  347.6  214.3  133.2    0.0
 1990 330   118  22.90  24.90  15.80  4.942  4.942  4.625  0.317  0.000  352.5  219.0  133.6    0.0
 1990 331   119  30.40  21.20  10.00  5.969  5.969  5.581  0.388  0.000  358.5  224.5  133.9    0.0
 1990 332   120  30.90  24.60   9.00  6.285  6.285  5.872  0.413  0.000  364.8  230.4  134.4    0.0
 1990 333   121  31.00  27.10  12.20  6.677  6.677  6.233  0.443  0.000  371.4  236.7  134.8    0.0
 1990 334   122  14.90  26.80  14.90  3.267  3.267  3.048  0.219  0.000  374.7  239.7  135.0    0.0
 1990 335   123  23.40  26.40  14.70  5.099  5.099  4.755  0.344  0.000  379.8  244.5  135.4    0.0
 1990 336   124   9.00  23.50  14.10  1.885  1.885  1.756  0.129  0.000  381.7  246.2  135.5    0.0
 1990 337   125  30.10  22.90  11.40  6.118  6.118  5.695  0.423  0.000  387.8  251.9  135.9    0.0
 1990 338   126  28.70  27.90  10.60  6.165  6.165  5.732  0.433  0.000  394.0  257.6  136.3    0.0
 1990 339   127  16.80  32.30  20.30  4.080  4.080  3.789  0.291  0.000  398.1  261.4  136.6    0.0
 1990 340   128  16.80  25.60  17.50  3.709  3.709  3.440  0.269  0.000  401.8  264.9  136.9    0.0
 1990 341   129  26.90  25.20  16.00  5.843  5.843  5.411  0.433  0.000  407.6  270.3  137.3    0.0
 1990 342   130  30.30  25.00  12.00  6.359  6.359  5.877  0.482  0.000  414.0  276.2  137.8    0.0
 1990 343   131   9.00  19.70  14.20  1.800  1.800  1.660  0.140  0.000  415.8  277.8  138.0    0.0
 1990 344   132   9.10  19.50  15.90  1.843  1.843  1.695  0.148  0.000  417.6  279.5  138.1    0.0
 1990 345   133  24.70  25.00  14.70  5.303  5.303  4.866  0.437  0.000  422.9  284.4  138.5    0.0
 1990 346   134  14.70  22.00  10.50  2.937  2.937  2.688  0.250  0.000  425.9  287.1  138.8    0.0
 1990 347   135  19.00  24.00  14.30  4.020  4.020  3.667  0.353  0.000  429.9  290.7  139.1    0.0
 1990 348   136  29.20  21.90  10.30  5.821  5.821  5.293  0.528  0.000  435.7  296.0  139.7    0.0
 1990 349   137  31.80  27.30  10.90  6.820  6.820  6.178  0.642  0.000  442.5  302.2  140.3    0.0
 1990 350   138  28.70  30.20  13.70  6.512  6.512  5.877  0.635  0.000  449.0  308.1  140.9    0.0
 1990 351   139  14.40  30.10  18.00  3.372  3.372  3.031  0.341  0.000  452.4  311.1  141.3    0.0
 1990 352   140  27.40  25.60  17.30  6.067  6.067  5.429  0.639  0.000  458.5  316.5  141.9    0.0
 1990 353   141  31.40  25.60  14.40  6.800  6.800  6.054  0.746  0.000  465.3  322.6  142.7    0.0
 1990 354   142  31.60  27.10  14.00  6.949  6.949  6.153  0.796  0.000  472.2  328.7  143.5    0.0
 1990 355   143  25.60  29.80  15.90  5.897  5.897  5.190  0.707  0.000  478.1  333.9  144.2    0.0
 1990 356   144  10.00  25.70  19.00  2.253  2.253  1.970  0.283  0.000  480.4  335.9  144.5    0.0
 1990 357   145  19.50  28.40  17.80  4.493  4.493  3.901  0.592  0.000  484.9  339.8  145.1    0.0
 1990 358   146  13.10  24.40  15.50  2.832  2.832  2.440  0.393  0.000  487.7  342.2  145.4    0.0
 1990 359   147  29.40  25.70  12.70  6.320  6.320  5.399  0.921  0.000  494.0  347.6  146.4    0.0
 1990 360   148  31.40  31.30  15.30  7.358  7.358  6.229  1.129  0.000  501.4  353.9  147.5    0.0
 1990 361   149  31.40  31.50  18.00  7.530  7.530  6.315  1.215  0.000  508.9  360.2  148.7    0.0
 1990 362   150  31.40  21.00  13.30  6.420  6.420  5.328  1.092  0.000  515.3  365.5  149.8    0.0
 1990 363   151  29.60  23.30   9.40  6.037  6.037  4.952  1.085  0.000  521.4  370.5  150.9    0.0
 1990 364   152  30.80  27.20  11.40  6.714  6.270  5.440  0.830  0.000  527.6  375.9  151.7    0.0
 1990 365   153  31.50  29.40  14.80  7.246  7.246  5.796  1.450  0.000  534.9  381.7  153.2    0.0
 1991 001   154  24.30  31.60  17.10  5.837  5.837  4.606  1.231  0.000  540.7  386.3  154.4    0.0
 1991 002   155  24.10  29.20  20.30  5.782  5.782  4.496  1.286  0.000  546.5  390.8  155.7    0.0
 1991 003   156  26.70  29.10  17.40  6.274  5.976  4.802  1.173  0.000  552.5  395.6  156.9    0.0
 1991 004   157  31.30  28.60  13.40  7.106  6.323  5.350  0.973  0.000  558.8  401.0  157.8    0.0
 1991 005   158  31.30  28.20  13.80  7.109  6.108  5.258  0.850  0.000  564.9  406.2  158.7    0.0
 1991 006   159  31.30  30.20  13.00  7.245  6.025  5.260  0.764  0.000  570.9  411.5  159.4    0.0
 1991 007   160  29.60  32.40  17.10  7.254  5.865  5.164  0.700  0.000  576.8  416.6  160.1    0.0
 1991 008   161  29.90  34.30  19.30  7.612  7.612  5.307  2.305  0.000  584.4  421.9  162.5    0.0
 1991 009   162   9.90  24.30  21.30  2.297  2.297  1.567  0.730  0.000  586.7  423.5  163.2    0.0
 1991 010   163  27.90  30.80  19.20  6.869  6.869  4.581  2.288  0.000  593.6  428.1  165.5    0.0
 1991 011   164  25.10  27.80  15.90  5.843  5.843  3.807  2.037  0.000  599.4  431.9  167.5    0.0
 1991 012   165  29.50  26.40  13.00  6.604  6.353  4.302  2.051  0.000  605.8  436.2  169.6    0.0
 1991 013   166  19.30  27.00  12.90  4.348  4.348  2.833  1.515  0.000  610.1  439.0  171.1    0.0
 1991 014   167  30.50  28.00  14.60  7.046  6.677  4.590  2.087  0.000  616.8  443.6  173.2    0.0

*DSSAT Cropping System Model Ver. 4.0.2.000               Aug 03, 2016; 15:38:57

*RUN   5        : UYMZ                    
 MODEL          : MZCER040 - Maize           
 EXPERIMENT     : UYMZ0133 MZ    late to create DSS                             
 TREATMENT  1   : UYMZ                    

@YEAR DOY   DAS   SRAA   TMXA   TMNA   EOAA   ETAA   EPAA   ESAA   EFAD   ETAC   EPAC   ESAC   EFAC
 1991 212     0  11.30  15.40   5.60  2.257  2.257  0.000  2.257  0.000    2.3    0.0    2.3    0.0
 1991 213     1  15.40   6.50   0.50  2.516  2.516  0.000  2.516  0.000    4.8    0.0    4.8    0.0
 1991 214     2  13.80   9.60  -1.80  2.318  1.882  0.000  1.882  0.000    6.7    0.0    6.7    0.0
 1991 215     3  14.00  11.90  -0.90  2.472  2.472  0.000  2.472  0.000    9.1    0.0    9.1    0.0
 1991 216     4   4.40  10.90   4.00  0.806  0.806  0.000  0.806  0.000    9.9    0.0    9.9    0.0
 1991 217     5  14.60  15.00   4.30  2.862  2.862  0.000  2.862  0.000   12.8    0.0   12.8    0.0
 1991 218     6   4.50   9.70   1.90  0.790  0.790  0.000  0.790  0.000   13.6    0.0   13.6    0.0
 1991 219     7   7.50  15.40   2.30  1.449  1.449  0.000  1.449  0.000   15.0    0.0   15.0    0.0
 1991 220     8  11.00  16.70   7.50  2.281  1.406  0.000  1.406  0.000   16.4    0.0   16.4    0.0
 1991 221     9   5.10  15.70  10.40  1.072  1.072  0.000  1.072  0.000   17.5    0.0   17.5    0.0
 1991 222    10   4.80  11.90   8.10  0.933  0.933  0.000  0.933  0.000   18.4    0.0   18.4    0.0
 1991 223    11   7.80  13.10   5.60  1.505  1.505  0.000  1.505  0.000   19.9    0.0   19.9    0.0
 1991 224    12  12.50  15.80   1.50  2.411  1.136  0.000  1.136  0.000   21.1    0.0   21.1    0.0
 1991 225    13  11.60  18.50   7.30  2.463  0.952  0.000  0.952  0.000   22.0    0.0   22.0    0.0
 1991 226    14  15.20  25.70  10.80  3.656  0.836  0.000  0.836  0.000   22.9    0.0   22.9    0.0
 1991 227    15  10.70  25.30  15.40  2.658  0.754  0.000  0.754  0.000   23.6    0.0   23.6    0.0
 1991 228    16  12.60  27.30  14.40  3.180  0.692  0.000  0.692  0.000   24.3    0.0   24.3    0.0
 1991 229    17  16.10  24.70  11.80  3.855  0.653  0.009  0.644  0.000   25.0    0.0   25.0    0.0
 1991 230    18   9.30  23.80  13.60  2.235  0.613  0.009  0.604  0.000   25.6    0.0   25.6    0.0
 1991 231    19  12.70  26.00  10.90  3.066  0.590  0.019  0.571  0.000   26.2    0.0   26.1    0.0
 1991 232    20   9.30  26.00  11.80  2.261  0.562  0.019  0.543  0.000   26.7    0.1   26.7    0.0
 1991 233    21  14.70  26.00  11.60  3.566  0.557  0.038  0.518  0.000   27.3    0.1   27.2    0.0
 1991 234    22  13.80  26.40  14.60  3.445  0.543  0.046  0.497  0.000   27.8    0.1   27.7    0.0
 1991 235    23  16.70  21.60  14.50  3.922  0.570  0.092  0.478  0.000   28.4    0.2   28.2    0.0
 1991 236    24  16.20  20.70   9.90  3.610  0.578  0.117  0.461  0.000   29.0    0.3   28.6    0.0
 1991 237    25  14.10  24.70  11.10  3.338  0.577  0.131  0.446  0.000   29.6    0.5   29.1    0.0
 1991 238    26   5.40  16.90  11.90  1.161  0.490  0.058  0.432  0.000   30.1    0.5   29.5    0.0
 1991 239    27   5.30  16.20  10.20  1.110  1.110  0.062  1.048  0.000   31.2    0.6   30.6    0.0
 1991 240    28  10.80  21.40  12.10  2.465  0.600  0.152  0.448  0.000   31.8    0.8   31.0    0.0
 1991 241    29  10.70  22.80  14.40  2.530  0.616  0.182  0.434  0.000   32.4    0.9   31.4    0.0
 1991 242    30   7.30  24.20  16.00  1.776  0.573  0.151  0.422  0.000   33.0    1.1   31.9    0.0
 1991 243    31   5.50  16.80  11.00  1.162  1.162  0.117  1.045  0.000   34.1    1.2   32.9    0.0
 1991 244    32   9.40  16.10   8.10  1.912  1.716  0.208  1.509  0.000   35.8    1.4   34.4    0.0
 1991 245    33   5.50  17.90  11.20  1.180  0.764  0.135  0.629  0.000   36.6    1.5   35.0    0.0
 1991 246    34  10.50  22.80  14.00  2.456  2.456  0.304  2.151  0.000   39.1    1.8   37.2    0.0
 1991 247    35  18.10  25.80  13.20  4.352  2.301  0.609  1.692  0.000   41.4    2.5   38.9    0.0
 1991 248    36  18.40  27.20  13.90  4.510  1.930  0.722  1.208  0.000   43.3    3.2   40.1    0.0
 1991 249    37   5.70  22.50  16.00  1.338  1.238  0.245  0.993  0.000   44.5    3.4   41.1    0.0
 1991 250    38   5.80  17.20  12.80  1.234  1.214  0.252  0.963  0.000   45.7    3.7   42.1    0.0
 1991 251    39   6.40  17.10  10.50  1.329  1.329  0.288  1.040  0.000   47.1    4.0   43.1    0.0
 1991 252    40  15.60  20.00   8.40  3.300  3.300  0.753  2.547  0.000   50.4    4.7   45.6    0.0
 1991 253    41  17.50  22.00  10.20  3.854  2.347  0.931  1.416  0.000   52.7    5.6   47.1    0.0
 1991 254    42  20.20  25.00  10.80  4.633  2.299  1.201  1.097  0.000   55.0    6.8   48.2    0.0
 1991 255    43  19.90  27.80  14.10  4.830  2.293  1.364  0.929  0.000   57.3    8.2   49.1    0.0
 1991 256    44  15.40  30.70  16.10  3.905  2.042  1.222  0.820  0.000   59.3    9.4   49.9    0.0
 1991 257    45   6.10  21.00   7.80  1.277  1.189  0.446  0.742  0.000   60.5    9.9   50.6    0.0
 1991 258    46   6.20  12.30   8.20  1.148  1.148  0.421  0.728  0.000   61.7   10.3   51.4    0.0
 1991 259    47  11.50  23.50  12.40  2.579  2.579  0.960  1.619  0.000   64.3   11.3   53.0    0.0
 1991 260    48   6.30  21.10  17.10  1.420  1.420  0.567  0.852  0.000   65.7   11.8   53.8    0.0
 1991 261    49  18.90  19.70  13.10  4.030  4.030  1.710  2.320  0.000   69.7   13.5   56.2    0.0
 1991 262    50  21.70  17.30   8.80  4.298  4.298  1.897  2.401  0.000   74.0   15.4   58.6    0.0
 1991 263    51  13.10  22.60   8.30  2.770  2.677  1.258  1.419  0.000   76.7   16.7   60.0    0.0
 1991 264    52  11.00  27.50  12.60  2.554  2.554  1.212  1.342  0.000   79.2   17.9   61.3    0.0
 1991 265    53  20.40  20.30  10.30  4.226  4.226  2.137  2.088  0.000   83.5   20.0   63.4    0.0
 1991 266    54  21.60  16.90   3.20  3.981  3.516  2.086  1.430  0.000   87.0   22.1   64.8    0.0
 1991 267    55  22.30  19.00   4.90  4.321  3.280  2.177  1.103  0.000   90.3   24.3   65.9    0.0
 1991 268    56  20.30  21.10   8.70  4.186  3.076  2.144  0.932  0.000   93.3   26.5   66.9    0.0
 1991 269    57  21.70  23.40   7.80  4.563  3.243  2.420  0.823  0.000   96.6   28.9   67.7    0.0
 1991 270    58  17.70  27.80  13.80  4.114  3.021  2.276  0.744  0.000   99.6   31.1   68.4    0.0
 1991 271    59  22.20  16.10   9.00  4.236  3.183  2.498  0.685  0.000  102.8   33.6   69.1    0.0
 1991 272    60  21.80  18.00   7.50  4.205  3.167  2.529  0.638  0.000  105.9   36.2   69.8    0.0
 1991 273    61  21.10  20.20   9.70  4.272  3.219  2.620  0.599  0.000  109.2   38.8   70.4    0.0
 1991 274    62  19.70  18.40   7.00  3.787  2.954  2.388  0.567  0.000  112.1   41.2   70.9    0.0
 1991 275    63  22.00  18.40   5.70  4.171  4.171  2.676  1.495  0.000  116.3   43.9   72.4    0.0
 1991 276    64  23.00  19.80   3.80  4.363  4.363  2.842  1.521  0.000  120.7   46.7   74.0    0.0
 1991 277    65  19.10  21.70   6.30  3.810  3.810  2.455  1.355  0.000  124.5   49.2   75.3    0.0
 1991 278    66   7.10  13.60  10.60  1.314  1.314  0.865  0.449  0.000  125.8   50.0   75.8    0.0
 1991 279    67  13.30  12.50   7.00  2.333  2.333  1.556  0.777  0.000  128.1   51.6   76.5    0.0
 1991 280    68  14.80  14.20   4.00  2.583  2.583  1.731  0.852  0.000  130.7   53.3   77.4    0.0
 1991 281    69  23.60  16.90   3.90  4.291  4.291  2.833  1.458  0.000  135.0   56.1   78.8    0.0
 1991 282    70  20.30  20.90   7.30  4.038  4.038  2.628  1.410  0.000  139.0   58.8   80.3    0.0
 1991 283    71  24.30  23.10   7.20  4.963  4.963  3.297  1.666  0.000  144.0   62.1   81.9    0.0
 1991 284    72  24.30  25.00   8.70  5.140  4.726  3.493  1.234  0.000  148.7   65.6   83.2    0.0
 1991 285    73  24.40  29.20  12.20  5.572  5.572  3.887  1.685  0.000  154.3   69.4   84.8    0.0
 1991 286    74  21.90  33.00  20.00  5.507  5.507  3.975  1.532  0.000  159.8   73.4   86.4    0.0
 1991 287    75  11.80  32.00  21.10  2.945  2.945  2.221  0.724  0.000  162.7   75.6   87.1    0.0
 1991 288    76   7.50  23.50  17.60  1.652  1.652  1.280  0.371  0.000  164.4   76.9   87.5    0.0
 1991 289    77   7.60  17.80  11.60  1.477  1.477  1.162  0.315  0.000  165.9   78.1   87.8    0.0
 1991 290    78  15.50  16.00   8.40  2.848  2.848  2.266  0.582  0.000  168.7   80.3   88.4    0.0
 1991 291    79  26.30  21.50   8.40  5.211  5.211  4.160  1.050  0.000  173.9   84.5   89.4    0.0
 1991 292    80  26.30  24.60  11.00  5.539  5.539  4.465  1.074  0.000  179.5   89.0   90.5    0.0
 1991 293    81  26.30  24.90  12.50  5.619  5.619  4.596  1.023  0.000  185.1   93.6   91.5    0.0
 1991 294    82  24.40  29.60  14.20  5.576  5.576  4.628  0.948  0.000  190.7   98.2   92.5    0.0
 1991 295    83  20.20  29.90  19.80  4.819  4.819  4.071  0.748  0.000  195.5  102.3   93.2    0.0
 1991 296    84   8.30  19.10  12.60  1.638  1.638  1.411  0.228  0.000  197.1  103.7   93.4    0.0
 1991 297    85   7.90  17.40  10.20  1.490  1.490  1.292  0.198  0.000  198.6  105.0   93.6    0.0
 1991 298    86   7.90  21.30  15.40  1.641  1.641  1.430  0.211  0.000  200.2  106.4   93.8    0.0
 1991 299    87  22.70  24.90  16.30  4.959  4.959  4.345  0.614  0.000  205.2  110.7   94.5    0.0
 1991 300    88  12.20  23.30  14.70  2.575  2.575  2.297  0.278  0.000  207.8  113.0   94.7    0.0
 1991 301    89   8.00  20.10  14.90  1.624  1.624  1.458  0.165  0.000  209.4  114.5   94.9    0.0
 1991 302    90   8.00  16.80  15.20  1.559  1.559  1.404  0.154  0.000  211.0  115.9   95.1    0.0
 1991 303    91   8.10  18.00  14.60  1.594  1.594  1.440  0.154  0.000  212.6  117.3   95.2    0.0
 1991 304    92   8.10  20.70  14.60  1.651  1.651  1.494  0.156  0.000  214.2  118.8   95.4    0.0
 1991 305    93  17.90  22.30  13.70  3.693  3.693  3.350  0.343  0.000  217.9  122.2   95.7    0.0
 1991 306    94  25.50  22.30  12.20  5.193  5.193  4.727  0.465  0.000  223.1  126.9   96.2    0.0
 1991 307    95  20.80  22.80  12.80  4.283  4.283  3.909  0.373  0.000  227.4  130.8   96.5    0.0
 1991 308    96  27.90  25.00  11.90  5.858  5.858  5.360  0.498  0.000  233.2  136.2   97.0    0.0
 1991 309    97  20.90  25.90  13.20  4.483  4.483  4.110  0.372  0.000  237.7  140.3   97.4    0.0
 1991 310    98  11.60  24.30  16.20  2.499  2.499  2.296  0.203  0.000  240.2  142.6   97.6    0.0
[...]
 1991 354   142  28.80  31.00  18.00  6.855  6.855  5.846  1.010  0.000  442.0  324.4  117.6    0.0
 1991 355   143  23.90  32.40  19.90  5.860  5.860  4.963  0.896  0.000  447.9  329.4  118.5    0.0
 1991 356   144  11.20  27.10  20.30  2.601  2.601  2.188  0.414  0.000  450.5  331.6  118.9    0.0
 1991 357   145  23.80  30.00  19.50  5.680  5.680  4.740  0.940  0.000  456.2  336.3  119.8    0.0
 1991 358   146  27.30  30.80  20.60  6.631  6.631  5.488  1.144  0.000  462.8  341.8  121.0    0.0
 1991 359   147  21.00  25.60  17.40  4.703  4.703  3.858  0.845  0.000  467.5  345.7  121.8    0.0
 1991 360   148  23.90  22.70  13.40  5.010  5.010  4.070  0.939  0.000  472.5  349.7  122.8    0.0
 1991 361   149  29.90  25.20  12.40  6.419  6.419  5.161  1.258  0.000  478.9  354.9  124.0    0.0
 1991 362   150  28.80  26.60  14.90  6.423  6.423  5.108  1.315  0.000  485.3  360.0  125.3    0.0
 1991 363   151  30.80  29.30  14.60  7.080  7.080  5.567  1.514  0.000  492.4  365.6  126.9    0.0
 1991 364   152  23.60  30.40  17.40  5.617  5.505  4.363  1.142  0.000  497.9  369.9  128.0    0.0
 1991 365   153  19.50  33.00  21.10  4.909  4.909  3.764  1.144  0.000  502.8  373.7  129.1    0.0
 1992 001   154  10.80  28.00  20.30  2.565  2.565  1.940  0.625  0.000  505.4  375.6  129.8    0.0
 1992 002   155  19.00  28.60  19.10  4.510  4.510  3.361  1.148  0.000  509.9  379.0  130.9    0.0
 1992 003   156  28.00  23.20  14.20  6.014  6.014  4.413  1.600  0.000  515.9  383.4  132.5    0.0
 1992 004   157  31.30  26.80  14.90  7.072  7.072  5.107  1.965  0.000  523.0  388.5  134.5    0.0
 1992 005   158  30.40  28.90  13.10  6.954  6.662  4.938  1.724  0.000  529.7  393.5  136.2    0.0
 1992 006   159  20.50  27.20  15.70  4.700  4.700  3.279  1.421  0.000  534.4  396.7  137.6    0.0
 1992 007   160  25.30  29.60  15.90  5.983  5.983  4.095  1.887  0.000  540.3  400.8  139.5    0.0
 1992 008   161  27.90  31.00  20.10  6.924  6.026  4.645  1.381  0.000  546.4  405.5  140.9    0.0
 1992 009   162  23.60  31.00  20.00  5.865  4.933  3.853  1.081  0.000  551.3  409.3  142.0    0.0
 1992 010   163  21.00  30.00  20.90  5.197  4.332  3.413  0.919  0.000  555.6  412.7  142.9    0.0
 1992 011   164  31.30  27.00  14.90  7.158  5.515  4.702  0.813  0.000  561.2  417.4  143.7    0.0

*DSSAT Cropping System Model Ver. 4.0.2.000               Aug 03, 2016; 15:38:57

*RUN   6        : UYMZ                    
 MODEL          : MZCER040 - Maize           
 EXPERIMENT     : UYMZ0133 MZ    late to create DSS                             
 TREATMENT  1   : UYMZ                    

@YEAR DOY   DAS   SRAA   TMXA   TMNA   EOAA   ETAA   EPAA   ESAA   EFAD   ETAC   EPAC   ESAC   EFAC
 1992 212     0   4.30  13.60   7.50  0.852  0.852  0.000  0.852  0.000    0.9    0.0    0.9    0.0
 1992 213     1   6.30   9.40   3.80  1.124  1.124  0.000  1.124  0.000    2.0    0.0    2.0    0.0
 1992 214     2  13.60   8.80   0.20  2.306  1.656  0.000  1.656  0.000    3.6    0.0    3.6    0.0
 1992 215     3  13.70  12.00   0.10  2.450  2.450  0.000  2.450  0.000    6.1    0.0    6.1    0.0
 1992 216     4  13.70  13.70   0.50  2.530  2.530  0.000  2.530  0.000    8.6    0.0    8.6    0.0
 1992 217     5  10.00  12.50   1.20  1.825  1.503  0.000  1.503  0.000   10.1    0.0   10.1    0.0
 1992 218     6  12.80  17.40  -1.30  2.458  2.458  0.000  2.458  0.000   12.6    0.0   12.6    0.0
 1992 219     7  15.20  25.60   6.90  3.534  1.630  0.000  1.630  0.000   14.2    0.0   14.2    0.0
 1992 220     8   4.50  21.40   8.20  1.002  1.002  0.000  1.002  0.000   15.2    0.0   15.2    0.0
 1992 221     9  14.50  10.40   1.40  2.562  1.920  0.000  1.920  0.000   17.1    0.0   17.1    0.0
 1992 222    10  10.20  13.40  -0.60  1.852  1.087  0.000  1.087  0.000   18.2    0.0   18.2    0.0
 1992 223    11   9.40  15.40   7.80  1.919  0.922  0.000  0.922  0.000   19.1    0.0   19.1    0.0
 1992 224    12  15.10  14.90   3.90  2.943  0.816  0.000  0.816  0.000   20.0    0.0   20.0    0.0
 1992 225    13  14.50  15.90   6.10  2.932  0.739  0.000  0.739  0.000   20.7    0.0   20.7    0.0
 1992 226    14  15.60  18.00   2.80  3.150  0.681  0.000  0.681  0.000   21.4    0.0   21.4    0.0
 1992 227    15  14.70  18.40   3.00  2.992  0.634  0.000  0.634  0.000   22.0    0.0   22.0    0.0
 1992 228    16   9.50  19.20   5.70  2.007  0.596  0.000  0.596  0.000   22.6    0.0   22.6    0.0
 1992 229    17  15.30  22.20   8.70  3.458  0.564  0.000  0.564  0.000   23.2    0.0   23.2    0.0
 1992 230    18  12.30  23.20   9.70  2.841  0.537  0.000  0.537  0.000   23.7    0.0   23.7    0.0
 1992 231    19  14.00  20.80   9.20  3.120  0.514  0.000  0.514  0.000   24.2    0.0   24.2    0.0
 1992 232    20  13.40  19.60   7.90  2.904  0.497  0.004  0.493  0.000   24.7    0.0   24.7    0.0
 1992 233    21  13.30  19.40   6.20  2.829  0.481  0.007  0.474  0.000   25.2    0.0   25.2    0.0
 1992 234    22  16.90  23.10   9.50  3.890  0.470  0.012  0.458  0.000   25.7    0.0   25.6    0.0
 1992 235    23   7.80  20.10  13.90  1.793  1.208  0.008  1.200  0.000   26.9    0.0   26.8    0.0
 1992 236    24  17.00  19.30   9.60  3.723  3.723  0.024  3.699  0.000   30.6    0.1   30.5    0.0
 1992 237    25  17.80  21.00   7.10  3.899  0.568  0.030  0.538  0.000   31.2    0.1   31.1    0.0
 1992 238    26  18.00  21.20   5.80  3.907  0.550  0.036  0.515  0.000   31.7    0.1   31.6    0.0
 1992 239    27  17.90  20.30   6.20  3.851  0.534  0.040  0.494  0.000   32.2    0.2   32.1    0.0
 1992 240    28  17.60  25.40   6.30  4.054  0.523  0.048  0.475  0.000   32.8    0.2   32.6    0.0
 1992 241    29  11.50  18.80  11.40  2.539  0.494  0.035  0.458  0.000   33.3    0.2   33.0    0.0
 1992 242    30  14.20  24.40  11.00  3.357  0.509  0.065  0.444  0.000   33.8    0.3   33.5    0.0
 1992 243    31   5.50  20.90  15.20  1.287  0.466  0.036  0.430  0.000   34.2    0.3   33.9    0.0
 1992 244    32   7.20  13.80   9.60  1.453  1.453  0.054  1.399  0.000   35.7    0.4   35.3    0.0
 1992 245    33   7.50  14.00   7.20  1.482  0.663  0.060  0.603  0.000   36.4    0.5   35.9    0.0
 1992 246    34   5.70  14.80   8.60  1.155  0.620  0.050  0.570  0.000   37.0    0.5   36.5    0.0
 1992 247    35  14.90  17.40   7.30  3.093  0.686  0.144  0.542  0.000   37.7    0.7   37.0    0.0
 1992 248    36  18.80  18.80   6.80  3.959  0.722  0.204  0.518  0.000   38.4    0.9   37.5    0.0
 1992 249    37  18.30  21.20   6.10  3.954  0.724  0.227  0.496  0.000   39.1    1.1   38.0    0.0
 1992 250    38  18.30  18.80   8.70  3.914  0.732  0.254  0.477  0.000   39.8    1.3   38.5    0.0
 1992 251    39  17.80  20.60   9.70  3.931  0.745  0.285  0.461  0.000   40.6    1.6   39.0    0.0
 1992 252    40   5.90  20.10  13.60  1.337  0.555  0.110  0.445  0.000   41.1    1.7   39.4    0.0
 1992 253    41  11.20  20.00  13.40  2.527  0.667  0.235  0.432  0.000   41.8    2.0   39.8    0.0
 1992 254    42  12.60  21.60  13.10  2.889  0.722  0.303  0.419  0.000   42.5    2.3   40.3    0.0
 1992 255    43   8.60  21.20  14.90  1.988  1.988  0.236  1.752  0.000   44.5    2.5   42.0    0.0
 1992 256    44  16.90  19.30  12.30  3.719  3.719  0.498  3.221  0.000   48.2    3.0   45.2    0.0
 1992 257    45  10.20  16.70   8.80  2.095  2.095  0.308  1.787  0.000   50.3    3.3   47.0    0.0
 1992 258    46  17.10  20.10   6.20  3.590  2.633  0.556  2.076  0.000   53.0    3.9   49.1    0.0
 1992 259    47  19.70  21.30   9.00  4.304  3.058  0.710  2.347  0.000   56.0    4.6   51.4    0.0
 1992 260    48  12.60  22.60  12.60  2.881  1.887  0.516  1.371  0.000   57.9    5.1   52.8    0.0
 1992 261    49  14.90  26.70  15.20  3.648  1.795  0.719  1.076  0.000   59.7    5.8   53.9    0.0
 1992 262    50  19.80  16.60   9.30  4.033  4.033  0.900  3.133  0.000   63.7    6.7   57.0    0.0
 1992 263    51  21.60  19.30   5.20  4.390  2.068  1.026  1.041  0.000   65.8    7.7   58.1    0.0
 1992 264    52  21.40  25.60   5.90  4.756  2.053  1.159  0.894  0.000   67.9    8.9   59.0    0.0
 1992 265    53  21.20  30.00  10.20  5.136  2.151  1.355  0.796  0.000   70.0   10.3   59.8    0.0
 1992 266    54   6.50  12.70   8.80  1.232  1.232  0.362  0.870  0.000   71.2   10.6   60.6    0.0
 1992 267    55  16.00  18.60   6.50  3.227  3.227  0.967  2.261  0.000   74.5   11.6   62.9    0.0
 1992 268    56   6.60  13.20  10.60  1.279  1.279  0.398  0.882  0.000   75.7   12.0   63.8    0.0
 1992 269    57  21.20  12.50   4.50  3.819  3.819  1.219  2.599  0.000   79.6   13.2   66.4    0.0
 1992 270    58  20.60  14.20   0.80  3.668  3.668  1.162  2.506  0.000   83.2   14.4   68.9    0.0
 1992 271    59  21.70  20.00   4.50  4.417  3.443  1.089  2.355  0.000   86.7   15.5   71.2    0.0
 1992 272    60  23.00  21.40   5.30  4.800  3.570  1.238  2.332  0.000   90.2   16.7   73.6    0.0
 1992 273    61  23.30  23.20   6.10  5.002  2.759  1.390  1.368  0.000   93.0   18.1   74.9    0.0
 1992 274    62  22.50  26.20  10.30  5.181  2.648  1.574  1.075  0.000   95.7   19.7   76.0    0.0
 1992 275    63  12.50  26.40  11.00  2.888  1.883  0.968  0.915  0.000   97.5   20.6   76.9    0.0
 1992 276    64  11.80  21.80  13.00  2.605  2.558  0.958  1.600  0.000  100.1   21.6   78.5    0.0
 1992 277    65  17.90  20.60  11.10  3.812  2.362  1.509  0.853  0.000  102.5   23.1   79.4    0.0
 1992 278    66  18.00  25.50  11.70  4.084  2.482  1.715  0.767  0.000  104.9   24.8   80.1    0.0
 1992 279    67   7.10  18.20  11.80  1.461  1.360  0.658  0.702  0.000  106.3   25.5   80.8    0.0
 1992 280    68  24.40  15.90   7.40  4.655  4.655  2.187  2.468  0.000  111.0   27.6   83.3    0.0
 1992 281    69  21.30  15.60   4.20  3.915  3.284  1.878  1.406  0.000  114.2   29.5   84.7    0.0
 1992 282    70  24.30  19.00   3.40  4.661  4.661  2.221  2.439  0.000  118.9   31.7   87.1    0.0
 1992 283    71  24.30  21.00   6.60  4.946  3.786  2.302  1.484  0.000  122.7   34.1   88.6    0.0
 1992 284    72  25.10  25.30   7.30  5.424  3.746  2.619  1.127  0.000  126.4   36.7   89.8    0.0
 1992 285    73  16.70  27.20   9.20  3.739  2.856  1.910  0.947  0.000  129.3   38.6   90.7    0.0
 1992 286    74  22.70  24.00  12.40  4.992  3.542  2.710  0.832  0.000  132.8   41.3   91.5    0.0
 1992 287    75  25.10  25.60   8.60  5.431  5.431  3.111  2.320  0.000  138.3   44.4   93.9    0.0
 1992 288    76  24.70  29.50  11.40  5.710  5.710  3.413  2.297  0.000  144.0   47.8   96.2    0.0
 1992 289    77   7.60  31.50  15.50  1.845  1.845  1.162  0.683  0.000  145.8   49.0   96.8    0.0
 1992 290    78   9.30  20.50  15.70  1.979  1.979  1.292  0.688  0.000  147.8   50.3   97.5    0.0
 1992 291    79  23.40  21.20  12.00  4.853  4.853  3.275  1.578  0.000  152.6   53.5   99.1    0.0
 1992 292    80  25.90  21.20   7.50  5.150  5.150  3.567  1.583  0.000  157.8   57.1  100.7    0.0
 1992 293    81   9.10  19.80  11.20  1.832  1.832  1.291  0.541  0.000  159.6   58.4  101.2    0.0
 1992 294    82  24.10  18.60  10.30  4.726  4.726  3.397  1.329  0.000  164.4   61.8  102.6    0.0
 1992 295    83  26.10  21.30   5.50  5.076  5.076  3.705  1.370  0.000  169.4   65.5  103.9    0.0
 1992 296    84  24.90  24.50   7.60  5.139  5.139  3.801  1.338  0.000  174.6   69.3  105.3    0.0
 1992 297    85  25.00  27.30  12.00  5.528  5.528  4.162  1.367  0.000  180.1   73.5  106.6    0.0
 1992 298    86  24.60  30.90  14.60  5.771  5.481  4.449  1.032  0.000  185.6   77.9  107.7    0.0
 1992 299    87   9.50  26.40  17.60  2.160  2.160  1.711  0.449  0.000  187.7   79.6  108.1    0.0
 1992 300    88  26.70  27.40  17.30  6.114  6.114  4.921  1.193  0.000  193.9   84.5  109.3    0.0
 1992 301    89  27.40  30.00  15.80  6.373  6.373  5.242  1.132  0.000  200.2   89.8  110.4    0.0
 1992 302    90  10.50  15.30   6.40  1.862  1.862  1.562  0.300  0.000  202.1   91.4  110.7    0.0
 1992 303    91  27.70  21.90   3.90  5.266  5.266  4.432  0.834  0.000  207.4   95.8  111.6    0.0
 1992 304    92  26.80  21.80   6.40  5.210  5.210  4.348  0.862  0.000  212.6  100.1  112.4    0.0
 1992 305    93  26.90  23.80   6.80  5.384  5.384  4.527  0.857  0.000  217.9  104.7  113.3    0.0
 1992 306    94  27.10  27.10   9.00  5.755  5.755  4.880  0.875  0.000  223.7  109.5  114.2    0.0
 1992 307    95  27.30  30.20  13.00  6.200  6.200  5.316  0.885  0.000  229.9  114.9  115.1    0.0
 1992 308    96  21.90  19.80   9.40  4.236  4.236  3.683  0.553  0.000  234.1  118.5  115.6    0.0
 1992 309    97  27.20  14.10   6.50  4.711  4.711  4.176  0.535  0.000  238.8  122.7  116.1    0.0
 1992 310    98  24.50  16.40   2.70  4.226  4.226  3.764  0.462  0.000  243.1  126.5  116.6    0.0
 1992 311    99  27.00  19.20   4.80  4.968  4.968  4.303  0.665  0.000  248.0  130.8  117.3    0.0
 1992 312   100  27.40  21.50   7.30  5.322  5.322  4.625  0.697  0.000  253.4  135.4  118.0    0.0
 1992 313   101  28.00  25.20   8.30  5.751  5.751  5.038  0.713  0.000  259.1  140.4  118.7    0.0
 1992 314   102  28.20  29.80  10.00  6.206  6.206  5.481  0.724  0.000  265.3  145.9  119.4    0.0
 1992 315   103   8.60  22.00  16.00  1.806  1.806  1.609  0.197  0.000  267.1  147.5  119.6    0.0
 1992 316   104  23.60  28.40  16.10  5.349  5.349  4.781  0.568  0.000  272.5  152.3  120.2    0.0
 1992 317   105  28.00  29.50  15.30  6.382  6.382  5.743  0.638  0.000  278.9  158.1  120.8    0.0
 1992 318   106  28.50  27.90  12.90  6.255  6.255  5.662  0.594  0.000  285.1  163.7  121.4    0.0
 1992 319   107  19.40  31.40  14.40  4.482  4.482  4.072  0.410  0.000  289.6  167.8  121.8    0.0
 1992 320   108  23.00  25.50  17.30  5.075  5.075  4.629  0.446  0.000  294.7  172.4  122.3    0.0
 1992 321   109  28.80  20.40  11.50  5.685  5.685  5.200  0.485  0.000  300.4  177.6  122.7    0.0
 1992 322   110  28.20  21.50   7.70  5.462  5.462  4.999  0.463  0.000  305.8  182.6  123.2    0.0
 1992 323   111  28.80  23.90   7.20  5.732  5.732  5.245  0.487  0.000  311.5  187.9  123.7    0.0
 1992 324   112  29.50  28.10  11.20  6.395  6.395  5.853  0.542  0.000  317.9  193.7  124.2    0.0
 1992 325   113  22.20  30.00  13.80  5.020  5.020  4.600  0.420  0.000  323.0  198.3  124.6    0.0
 1992 326   114   8.70  21.20  13.60  1.766  1.766  1.621  0.145  0.000  324.7  199.9  124.8    0.0
 1992 327   115  25.70  19.30  10.00  4.931  4.931  4.528  0.404  0.000  329.7  204.5  125.2    0.0
 1992 328   116  22.10  20.60   6.40  4.178  4.178  3.834  0.344  0.000  333.8  208.3  125.5    0.0
 1992 329   117  24.00  26.00  11.10  5.067  5.067  4.646  0.420  0.000  338.9  212.9  126.0    0.0
 1992 330   118  21.90  23.90  15.40  4.667  4.667  4.281  0.385  0.000  343.6  217.2  126.3    0.0
 1992 331   119  19.00  26.00  14.30  4.115  4.115  3.779  0.336  0.000  347.7  221.0  126.7    0.0
 1992 332   120  30.10  27.20  12.90  6.542  6.542  5.993  0.549  0.000  354.2  227.0  127.2    0.0
 1992 333   121  21.00  27.70  13.50  4.614  4.614  4.217  0.398  0.000  358.8  231.2  127.6    0.0
 1992 334   122  19.80  29.80  16.90  4.575  4.575  4.173  0.402  0.000  363.4  235.4  128.0    0.0
 1992 335   123  21.90  28.00  18.70  5.028  5.028  4.578  0.450  0.000  368.4  240.0  128.5    0.0
 1992 336   124  29.50  23.90  14.00  6.222  6.222  5.656  0.566  0.000  374.7  245.6  129.0    0.0
 1992 337   125  30.20  24.80   8.90  6.176  6.176  5.605  0.570  0.000  380.8  251.2  129.6    0.0
 1992 338   126  26.20  27.40   9.70  5.571  5.571  5.049  0.522  0.000  386.4  256.3  130.1    0.0
 1992 339   127  30.30  29.10  13.50  6.776  6.776  6.132  0.644  0.000  393.2  262.4  130.8    0.0
 1992 340   128  18.70  28.20  13.80  4.149  4.149  3.749  0.399  0.000  397.3  266.2  131.2    0.0
 1992 341   129  25.20  29.60  18.90  5.905  5.905  5.329  0.575  0.000  403.2  271.5  131.8    0.0
 1992 342   130  23.30  26.40  15.40  5.126  5.126  4.622  0.505  0.000  408.4  276.1  132.3    0.0
 1992 343   131  25.40  27.90  14.80  5.662  5.662  5.099  0.563  0.000  414.0  281.2  132.8    0.0
 1992 344   132  21.00  26.70  16.50  4.678  4.678  4.208  0.469  0.000  418.7  285.4  133.3    0.0
 1992 345   133  22.70  27.30  18.10  5.155  5.155  4.633  0.522  0.000  423.9  290.0  133.8    0.0
 1992 346   134  23.20  26.50  15.70  5.125  5.125  4.602  0.522  0.000  429.0  294.6  134.3    0.0
 1992 347   135  29.50  27.30  13.40  6.462  6.462  5.796  0.666  0.000  435.5  300.4  135.0    0.0
 1992 348   136  30.90  30.20  14.90  7.082  7.082  6.342  0.740  0.000  442.5  306.8  135.7    0.0
 1992 349   137  28.90  28.40  15.70  6.530  6.530  5.838  0.692  0.000  449.1  312.6  136.4    0.0
 1992 350   138  30.30  28.00  10.00  6.518  6.518  5.816  0.702  0.000  455.6  318.4  137.1    0.0
 1992 351   139  24.80  29.80  12.50  5.559  5.333  4.949  0.384  0.000  460.9  323.4  137.5    0.0
 1992 352   140  19.40  27.60  17.70  4.414  4.414  3.920  0.494  0.000  465.3  327.3  138.0    0.0
 1992 353   141  29.70  30.40  14.50  6.811  6.811  6.032  0.779  0.000  472.1  333.3  138.8    0.0
 1992 354   142  18.00  30.80  14.60  4.151  4.151  3.665  0.486  0.000  476.3  337.0  139.3    0.0
 1992 355   143  31.80  33.80  18.10  7.777  7.777  6.843  0.935  0.000  484.1  343.9  140.2    0.0
 1992 356   144  25.50  32.40  15.70  6.041  6.041  5.295  0.746  0.000  490.1  349.1  141.0    0.0
 1992 357   145  11.20  29.40  18.60  2.623  2.623  2.290  0.334  0.000  492.7  351.4  141.3    0.0
 1992 358   146  11.20  27.70  20.80  2.618  2.618  2.275  0.344  0.000  495.3  353.7  141.6    0.0
 1992 359   147  27.80  28.90  17.70  6.440  6.440  5.567  0.873  0.000  501.8  359.3  142.5    0.0
 1992 360   148  22.90  27.40  15.10  5.116  5.116  4.398  0.717  0.000  506.9  363.7  143.2    0.0
 1992 361   149  31.40  27.40  13.20  6.916  6.916  5.912  1.003  0.000  513.8  369.6  144.2    0.0
 1992 362   150  31.00  28.00  12.60  6.849  6.849  5.818  1.031  0.000  520.7  375.4  145.3    0.0
 1992 363   151  30.00  32.00  13.10  6.973  6.973  5.882  1.091  0.000  527.6  381.3  146.4    0.0
 1992 364   152   9.10  25.60  19.70  2.070  2.070  1.732  0.337  0.000  529.7  383.0  146.7    0.0
 1992 365   153   9.10  23.30  19.60  2.015  2.015  1.673  0.342  0.000  531.7  384.7  147.0    0.0
 1992 366   154   9.10  20.20  19.20  1.937  1.937  1.594  0.344  0.000  533.7  386.3  147.4    0.0
 1993 001   155   9.10  21.20  19.60  1.970  1.970  1.605  0.365  0.000  535.6  387.9  147.7    0.0
 1993 002   156   9.10  21.80  19.40  1.983  1.983  1.600  0.383  0.000  537.6  389.5  148.1    0.0
 1993 003   157   9.10  21.90  19.70  1.993  1.993  1.592  0.401  0.000  539.6  391.1  148.5    0.0
 1993 004   158  14.90  28.90  19.80  3.543  3.543  2.800  0.744  0.000  543.2  393.9  149.3    0.0
 1993 005   159  23.60  30.80  21.50  5.808  5.808  4.538  1.271  0.000  549.0  398.4  150.5    0.0
 1993 006   160  29.90  32.00  19.70  7.369  7.369  5.688  1.681  0.000  556.3  404.1  152.2    0.0
 1993 007   161  12.50  27.20  20.30  2.940  2.940  2.240  0.699  0.000  559.3  406.3  152.9    0.0
 1993 008   162  20.20  26.60  20.10  4.719  4.719  3.546  1.172  0.000  564.0  409.9  154.1    0.0
 1993 009   163  30.70  26.90  16.00  6.986  6.986  5.170  1.815  0.000  571.0  415.1  155.9    0.0
 1993 010   164  30.90  31.10  16.00  7.388  7.388  5.381  2.007  0.000  578.4  420.4  157.9    0.0
 1993 011   165  31.30  32.20  17.60  7.678  7.207  5.497  1.710  0.000  585.6  425.9  159.6    0.0
 1993 012   166  30.90  32.70  19.60  7.745  7.745  5.444  2.301  0.000  593.3  431.4  161.9    0.0
 1993 013   167  22.70  33.00  20.70  5.764  5.581  3.973  1.608  0.000  598.9  435.4  163.5    0.0
 1993 014   168  17.40  30.10  22.30  4.342  4.109  2.931  1.177  0.000  603.0  438.3  164.7    0.0
 1993 015   169  26.90  30.80  22.50  6.787  6.787  4.483  2.304  0.000  609.8  442.8  167.0    0.0
 1993 016   170  17.50  28.50  22.00  4.292  4.292  2.835  1.457  0.000  614.1  445.6  168.5    0.0
 1993 017   171  25.50  23.30  16.60  5.653  5.653  3.734  1.919  0.000  619.7  449.3  170.4    0.0
 1993 018   172  25.10  24.80  11.70  5.445  4.833  3.597  1.237  0.000  624.6  452.9  171.6    0.0
