*SIMULATION OVERVIEW FILE

*DSSAT Cropping System Model Ver. 4.0.2.000               Aug 03, 2016; 15:38:57
                                                                                
*RUN   1        : UYMZ                                                          
 MODEL          : MZCER040 - MAIZE                                              
 EXPERIMENT     : UYMZ0133 SN late to create DSS                                
 TREATMENT  1   : UYMZ                                                          
                                                                                
 CROP           : MAIZE          CULTIVAR : CMEDIO UY        ECOTYPE :IB0001    
 STARTING DATE  : JUL 31 1987                                                   
 PLANTING DATE  : AUG  3 1987    PLANTS/m2 :  7.0     ROW SPACING :  15.cm      
 WEATHER        : UYTA   1987                                                   
 SOIL           : UYSS0N2002     TEXTURE :       -  N20-02    SNIA CLAY RISS    
 SOIL INITIAL C : DEPTH:125cm EXTR. H2O:186.3mm  NO3: 74.8kg/ha  NH4: 23.9kg/ha 
 WATER BALANCE  : AUTOMATIC IRRIGATION - REFILL PROFILE                         
 IRRIGATION     : AUTOMATIC - PLANTING -> MATURITY [ SOIL DEPTH:30.00m 50.%]    
 NITROGEN BAL.  : SOIL-N & N-UPTAKE SIMULATION; NO N-FIXATION                   
 N-FERTILIZER   :       25 kg/ha IN     3 APPLICATIONS                          
 RESIDUE/MANURE : INITIAL :     0 kg/ha ;       0 kg/ha IN     0 APPLICATIONS   
 ENVIRONM. OPT. : DAYL=    0.00  SRAD=    0.00  TMAX=    0.00  TMIN=    0.00    
                  RAIN=    0.00  CO2 = R330.00  DEW =    0.00  WIND=    0.00    
 SIMULATION OPT : WATER   :Y  NITROGEN:Y  N-FIX:N  PHOSPH :N  PESTS  :N         
                  PHOTO   :C  ET      :R  INFIL:S  HYDROL :R  SOM    :G         
 MANAGEMENT OPT : PLANTING:R  IRRIG   :A  FERT :D  RESIDUE:N  HARVEST:M  WTH:M  
                                                                                
*SUMMARY OF SOIL AND GENETIC INPUT PARAMETERS                                   
                                                                                
   SOIL LOWER UPPER   SAT  EXTR  INIT   ROOT   BULK     pH    NO3    NH4    ORG 
  DEPTH LIMIT LIMIT    SW    SW    SW   DIST   DENS                          C  
   cm   cm3/cm3    cm3/cm3    cm3/cm3         g/cm3         ugN/g  ugN/g     %  
------------------------------------------------------------------------------- 
  0-  5 0.331 0.542 0.585 0.211 0.394   1.00   1.11   6.50  15.00   1.50   2.74 
  5- 15 0.331 0.542 0.585 0.211 0.394   1.00   1.11   6.50  15.00   1.50   2.74 
 15- 30 0.331 0.542 0.585 0.211 0.394   1.00   1.11   6.50  15.00   1.50   2.74 
 30- 45 0.290 0.438 0.491 0.148 0.334   0.43   1.26   6.50   8.50   1.50   1.07 
 45- 60 0.292 0.431 0.480 0.138 0.375   0.39   1.29   6.27   4.53   1.50   0.90 
 60- 90 0.293 0.419 0.466 0.126 0.419   0.32   1.34   6.00   0.00   1.50   0.64 
 90-108 0.286 0.408 0.460 0.122 0.408   0.23   1.36   6.00   0.00   1.50   0.35 
108-125 0.276 0.395 0.456 0.119 0.395   0.12   1.38   6.00   0.00   1.50   0.14 
                                                                                
TOT-125  37.3  55.9  62.1  18.6  49.1  <--cm   -  kg/ha-->   74.8   23.9 166127 
SOIL ALBEDO    : 0.09      EVAPORATION LIMIT : 6.00         MIN. FACTOR  : 1.00 
RUNOFF CURVE # :10.00      DRAINAGE RATE     : 0.40         FERT. FACTOR : 1.00 
                                                                                
 MAIZE      CULTIVAR :UY0370-CMEDIO UY          ECOTYPE :IB0001                 
 P1     : 280.00  P2     : 0.0000  P5     : 750.00                              
 G2     : 800.00  G3     :  7.500  PHINT  : 38.900                              
                                                                                
                                                                                
                                                                                
*SIMULATED CROP AND SOIL STATUS AT MAIN DEVELOPMENT STAGES

 RUN NO.     1     UYMZ                    

        CROP GROWTH   BIOMASS         LEAF   CROP N     STRESS  
   DATE  AGE STAGE      kg/ha    LAI   NUM  kg/ha  %   H2O    N 
 ------  --- ---------- -----  -----  ----  ---  ---  ----  ----
 31 JUL    0 Start Sim      0   0.00   0.0    0  0.0  0.00  0.00
  3 AUG    0 Sowing         0   0.00   0.0    0  0.0  0.00  0.00
  4 AUG    1 Germinate      0   0.00   0.0    0  0.0  0.00  0.00
 20 AUG   17 Emergence     28   0.00   1.5    1  4.4  0.00  0.00
  9 OCT   67 End Juveni   329   0.55   9.6   13  3.8  0.00  0.00
 13 OCT   71 Floral Ini   520   0.83  10.8   19  3.7  0.00  0.01
  1 DEC  120 75% Silkin  9134   4.49  22.5  128  1.4  0.00  0.04
 15 DEC  134 Beg Gr Fil 11397   4.09  22.5  136  1.2  0.00  0.05
 22 JAN  172 End Gr Fil 19925   1.91  22.5  156  0.8  0.00  0.21
 25 JAN  175 Maturity   19925   1.91  22.5  156  0.8  0.00  0.49
 25 JAN  175 Harvest    19925   1.91  22.5  156  0.8  0.00  0.00


*MAIN GROWTH AND DEVELOPMENT VARIABLES

@     VARIABLE                          SIMULATED     MEASURED
      --------                          ---------     --------
      Anthesis day (dap)                      120          -99
      Physiological maturity day (dap)        175          -99
      Yield at harvest maturity (kg [dm]/    9583          -99
      Number at maturity (no/m2)             3726          -99
      Unit wt at maturity (g [dm]/unit)    0.2572          -99
      Number at maturity (no/unit)          532.3          -99
      Tops weight at maturity (kg [dm]/ha   19925          -99
      By-product produced (stalk) at matu   10429          -99
      Leaf area index, maximum               4.54          -99
      Harvest index at maturity             0.481          -99
      Grain N at maturity (kg/ha)             112          -99
      Tops N at maturity (kg/ha)              156          -99
      Stem N at maturity (kg/ha)               44          -99
      Grain N at maturity (%)                 1.2          -99
      Tops weight at anthesis (kg [dm]/ha    8846          -99
      Tops N at anthesis (kg/ha)              127          -99
      Leaf number per stem at maturity      22.55          -99


*ENVIRONMENTAL AND STRESS FACTORS

 |-----Development Phase------|-------------Environment--------------|---------Stress----------|
                              |--------Average-------|---Cumulative--|  (0=Min, 1=Max Stress)  |
                         Time  Temp  Temp Solar Photop         Evapo |----Water---|--Nitrogen--|
                         Span   Max   Min   Rad  [day]   Rain  Trans  Photo         Photo
                         days    øC    øC MJ/m2     hr     mm     mm  synth Growth  synth Growth
------------------------------------------------------------------------------------------------
 Emergence-End Juvenile    50  18.4   6.8  15.4  11.73  138.5   69.4  0.000  0.000  0.002  0.001
 End Juvenil-Floral Init    4  24.2  11.9  18.2  12.62   26.3   12.9  0.000  0.000  0.002  0.001
 Floral Init-End Lf Grow   49  24.6  12.8  20.7  13.37  235.3  212.1  0.000  0.000  0.094  0.038
 End Lf Grth-Beg Grn Fil   14  26.9  15.6  24.0  13.99  103.0   71.4  0.000  0.000  0.144  0.057
 Grain Filling Phase       38  28.0  16.7  22.7  13.99  297.0  195.9  0.000  0.000  0.398  0.196

                     Maize YIELD :     9583 kg/ha    [Dry weight] 

************************************************************************************************

*DSSAT Cropping System Model Ver. 4.0.2.000               Aug 03, 2016; 15:38:57
                                                                                
*RUN   2        : UYMZ                                                          
 MODEL          : MZCER040 - MAIZE                                              
 EXPERIMENT     : UYMZ0133 SN late to create DSS                                
 TREATMENT  1   : UYMZ                                                          
                                                                                
 CROP           : MAIZE          CULTIVAR : CMEDIO UY        ECOTYPE :IB0001    
 STARTING DATE  : JUL 31 1987                                                   
 PLANTING DATE  : AUG  3 1987    PLANTS/m2 :  7.0     ROW SPACING :  15.cm      
 WEATHER        : UYTA   1987                                                   
 SOIL           : UYSS0N2002     TEXTURE :       -  N20-02    SNIA CLAY RISS    
 SOIL INITIAL C : DEPTH:125cm EXTR. H2O:186.3mm  NO3: 74.8kg/ha  NH4: 23.9kg/ha 
 WATER BALANCE  : AUTOMATIC IRRIGATION - REFILL PROFILE                         
 IRRIGATION     : AUTOMATIC - PLANTING -> MATURITY [ SOIL DEPTH:30.00m 50.%]    
 NITROGEN BAL.  : SOIL-N & N-UPTAKE SIMULATION; NO N-FIXATION                   
 N-FERTILIZER   :       25 kg/ha IN     3 APPLICATIONS                          
 RESIDUE/MANURE : INITIAL :     0 kg/ha ;       0 kg/ha IN     0 APPLICATIONS   
 ENVIRONM. OPT. : DAYL=    0.00  SRAD=    0.00  TMAX=    0.00  TMIN=    0.00    
                  RAIN=    0.00  CO2 = R330.00  DEW =    0.00  WIND=    0.00    
 SIMULATION OPT : WATER   :Y  NITROGEN:Y  N-FIX:N  PHOSPH :N  PESTS  :N         
                  PHOTO   :C  ET      :R  INFIL:S  HYDROL :R  SOM    :G         
 MANAGEMENT OPT : PLANTING:R  IRRIG   :A  FERT :D  RESIDUE:N  HARVEST:M  WTH:M  
                                                                                
*SUMMARY OF SOIL AND GENETIC INPUT PARAMETERS                                   
                                                                                
   SOIL LOWER UPPER   SAT  EXTR  INIT   ROOT   BULK     pH    NO3    NH4    ORG 
  DEPTH LIMIT LIMIT    SW    SW    SW   DIST   DENS                          C  
   cm   cm3/cm3    cm3/cm3    cm3/cm3         g/cm3         ugN/g  ugN/g     %  
------------------------------------------------------------------------------- 
  0-  5 0.331 0.542 0.585 0.211 0.394   1.00   1.11   6.50  15.00   1.50   2.74 
  5- 15 0.331 0.542 0.585 0.211 0.394   1.00   1.11   6.50  15.00   1.50   2.74 
 15- 30 0.331 0.542 0.585 0.211 0.394   1.00   1.11   6.50  15.00   1.50   2.74 
 30- 45 0.290 0.438 0.491 0.148 0.334   0.43   1.26   6.50   8.50   1.50   1.07 
 45- 60 0.292 0.431 0.480 0.138 0.375   0.39   1.29   6.27   4.53   1.50   0.90 
 60- 90 0.293 0.419 0.466 0.126 0.419   0.32   1.34   6.00   0.00   1.50   0.64 
 90-108 0.286 0.408 0.460 0.122 0.408   0.23   1.36   6.00   0.00   1.50   0.35 
108-125 0.276 0.395 0.456 0.119 0.395   0.12   1.38   6.00   0.00   1.50   0.14 
                                                                                
TOT-125  37.3  55.9  62.1  18.6  49.1  <--cm   -  kg/ha-->   74.8   23.9 166127 
SOIL ALBEDO    : 0.09      EVAPORATION LIMIT : 6.00         MIN. FACTOR  : 1.00 
RUNOFF CURVE # :10.00      DRAINAGE RATE     : 0.40         FERT. FACTOR : 1.00 
                                                                                
 MAIZE      CULTIVAR :UY0370-CMEDIO UY          ECOTYPE :IB0001                 
 P1     : 280.00  P2     : 0.0000  P5     : 750.00                              
 G2     : 800.00  G3     :  7.500  PHINT  : 38.900                              
                                                                                
                                                                                
                                                                                
*SIMULATED CROP AND SOIL STATUS AT MAIN DEVELOPMENT STAGES

 RUN NO.     2     UYMZ                    

        CROP GROWTH   BIOMASS         LEAF   CROP N     STRESS  
   DATE  AGE STAGE      kg/ha    LAI   NUM  kg/ha  %   H2O    N 
 ------  --- ---------- -----  -----  ----  ---  ---  ----  ----
 30 JUL    0 Start Sim      0   0.00   0.0    0  0.0  0.00  0.00
  2 AUG    0 Sowing         0   0.00   0.0    0  0.0  0.00  0.00
  3 AUG    1 Germinate      0   0.00   0.0    0  0.0  0.00  0.00
 16 AUG   14 Emergence     28   0.00   1.7    1  4.4  0.00  0.00
 30 SEP   59 End Juveni   307   0.43   9.7   12  3.8  0.00  0.00
  4 OCT   63 Floral Ini   462   0.66  10.6   17  3.7  0.00  0.01
 26 NOV  116 75% Silkin  8713   3.98  22.4  118  1.4  0.00  0.04
  9 DEC  129 Beg Gr Fil 11155   3.57  22.4  127  1.1  0.00  0.07
 12 JAN  163 End Gr Fil 20186   1.55  22.4  147  0.7  0.00  0.28
 14 JAN  165 Maturity   20186   1.55  22.4  147  0.7  0.00  0.57
 14 JAN  165 Harvest    20186   1.55  22.4  147  0.7  0.00  0.00


*MAIN GROWTH AND DEVELOPMENT VARIABLES

@     VARIABLE                          SIMULATED     MEASURED
      --------                          ---------     --------
      Anthesis day (dap)                      116          -99
      Physiological maturity day (dap)        165          -99
      Yield at harvest maturity (kg [dm]/   10027          -99
      Number at maturity (no/m2)             4120          -99
      Unit wt at maturity (g [dm]/unit)    0.2434          -99
      Number at maturity (no/unit)          588.6          -99
      Tops weight at maturity (kg [dm]/ha   20186          -99
      By-product produced (stalk) at matu   10244          -99
      Leaf area index, maximum               4.12          -99
      Harvest index at maturity             0.497          -99
      Grain N at maturity (kg/ha)             107          -99
      Tops N at maturity (kg/ha)              147          -99
      Stem N at maturity (kg/ha)               41          -99
      Grain N at maturity (%)                 1.1          -99
      Tops weight at anthesis (kg [dm]/ha    8552          -99
      Tops N at anthesis (kg/ha)              118          -99
      Leaf number per stem at maturity      22.44          -99


*ENVIRONMENTAL AND STRESS FACTORS

 |-----Development Phase------|-------------Environment--------------|---------Stress----------|
                              |--------Average-------|---Cumulative--|  (0=Min, 1=Max Stress)  |
                         Time  Temp  Temp Solar Photop         Evapo |----Water---|--Nitrogen--|
                         Span   Max   Min   Rad  [day]   Rain  Trans  Photo         Photo
                         days    øC    øC MJ/m2     hr     mm     mm  synth Growth  synth Growth
------------------------------------------------------------------------------------------------
 Emergence-End Juvenile    45  19.3   7.4  13.7  11.55  164.9   67.3  0.000  0.000  0.006  0.002
 End Juvenil-Floral Init    4  23.7  10.2  19.8  12.36    0.0   11.1  0.000  0.000  0.001  0.001
 Floral Init-End Lf Grow   53  24.8  10.7  23.6  13.21  130.3  253.8  0.000  0.000  0.107  0.043
 End Lf Grth-Beg Grn Fil   13  29.2  13.7  27.3  13.94    0.0   77.9  0.000  0.000  0.174  0.070
 Grain Filling Phase       34  31.6  16.4  27.2  14.03   41.0  222.2  0.000  0.000  0.490  0.264

                     Maize YIELD :    10027 kg/ha    [Dry weight] 

************************************************************************************************

*DSSAT Cropping System Model Ver. 4.0.2.000               Aug 03, 2016; 15:38:57
                                                                                
*RUN   3        : UYMZ                                                          
 MODEL          : MZCER040 - MAIZE                                              
 EXPERIMENT     : UYMZ0133 SN late to create DSS                                
 TREATMENT  1   : UYMZ                                                          
                                                                                
 CROP           : MAIZE          CULTIVAR : CMEDIO UY        ECOTYPE :IB0001    
 STARTING DATE  : JUL 31 1987                                                   
 PLANTING DATE  : AUG  3 1987    PLANTS/m2 :  7.0     ROW SPACING :  15.cm      
 WEATHER        : UYTA   1987                                                   
 SOIL           : UYSS0N2002     TEXTURE :       -  N20-02    SNIA CLAY RISS    
 SOIL INITIAL C : DEPTH:125cm EXTR. H2O:186.3mm  NO3: 74.8kg/ha  NH4: 23.9kg/ha 
 WATER BALANCE  : AUTOMATIC IRRIGATION - REFILL PROFILE                         
 IRRIGATION     : AUTOMATIC - PLANTING -> MATURITY [ SOIL DEPTH:30.00m 50.%]    
 NITROGEN BAL.  : SOIL-N & N-UPTAKE SIMULATION; NO N-FIXATION                   
 N-FERTILIZER   :       25 kg/ha IN     3 APPLICATIONS                          
 RESIDUE/MANURE : INITIAL :     0 kg/ha ;       0 kg/ha IN     0 APPLICATIONS   
 ENVIRONM. OPT. : DAYL=    0.00  SRAD=    0.00  TMAX=    0.00  TMIN=    0.00    
                  RAIN=    0.00  CO2 = R330.00  DEW =    0.00  WIND=    0.00    
 SIMULATION OPT : WATER   :Y  NITROGEN:Y  N-FIX:N  PHOSPH :N  PESTS  :N         
                  PHOTO   :C  ET      :R  INFIL:S  HYDROL :R  SOM    :G         
 MANAGEMENT OPT : PLANTING:R  IRRIG   :A  FERT :D  RESIDUE:N  HARVEST:M  WTH:M  
                                                                                
*SUMMARY OF SOIL AND GENETIC INPUT PARAMETERS                                   
                                                                                
   SOIL LOWER UPPER   SAT  EXTR  INIT   ROOT   BULK     pH    NO3    NH4    ORG 
  DEPTH LIMIT LIMIT    SW    SW    SW   DIST   DENS                          C  
   cm   cm3/cm3    cm3/cm3    cm3/cm3         g/cm3         ugN/g  ugN/g     %  
------------------------------------------------------------------------------- 
  0-  5 0.331 0.542 0.585 0.211 0.394   1.00   1.11   6.50  15.00   1.50   2.74 
  5- 15 0.331 0.542 0.585 0.211 0.394   1.00   1.11   6.50  15.00   1.50   2.74 
 15- 30 0.331 0.542 0.585 0.211 0.394   1.00   1.11   6.50  15.00   1.50   2.74 
 30- 45 0.290 0.438 0.491 0.148 0.334   0.43   1.26   6.50   8.50   1.50   1.07 
 45- 60 0.292 0.431 0.480 0.138 0.375   0.39   1.29   6.27   4.53   1.50   0.90 
 60- 90 0.293 0.419 0.466 0.126 0.419   0.32   1.34   6.00   0.00   1.50   0.64 
 90-108 0.286 0.408 0.460 0.122 0.408   0.23   1.36   6.00   0.00   1.50   0.35 
108-125 0.276 0.395 0.456 0.119 0.395   0.12   1.38   6.00   0.00   1.50   0.14 
                                                                                
TOT-125  37.3  55.9  62.1  18.6  49.1  <--cm   -  kg/ha-->   74.8   23.9 166127 
SOIL ALBEDO    : 0.09      EVAPORATION LIMIT : 6.00         MIN. FACTOR  : 1.00 
RUNOFF CURVE # :10.00      DRAINAGE RATE     : 0.40         FERT. FACTOR : 1.00 
                                                                                
 MAIZE      CULTIVAR :UY0370-CMEDIO UY          ECOTYPE :IB0001                 
 P1     : 280.00  P2     : 0.0000  P5     : 750.00                              
 G2     : 800.00  G3     :  7.500  PHINT  : 38.900                              
                                                                                
                                                                                
                                                                                
*SIMULATED CROP AND SOIL STATUS AT MAIN DEVELOPMENT STAGES

 RUN NO.     3     UYMZ                    

        CROP GROWTH   BIOMASS         LEAF   CROP N     STRESS  
   DATE  AGE STAGE      kg/ha    LAI   NUM  kg/ha  %   H2O    N 
 ------  --- ---------- -----  -----  ----  ---  ---  ----  ----
 31 JUL    0 Start Sim      0   0.00   0.0    0  0.0  0.00  0.00
  3 AUG    0 Sowing         0   0.00   0.0    0  0.0  0.00  0.00
  4 AUG    1 Germinate      0   0.00   0.0    0  0.0  0.00  0.00
 14 AUG   11 Emergence     28   0.00   1.9    1  4.4  0.00  0.00
 25 SEP   53 End Juveni   302   0.50   9.5   13  4.2  0.00  0.00
 29 SEP   57 Floral Ini   344   0.46   9.8   13  3.7  0.00  0.01
 22 NOV  111 75% Silkin  8414   4.03  20.8  123  1.5  0.00  0.03
  4 DEC  123 Beg Gr Fil 10803   3.76  20.8  130  1.2  0.00  0.05
  8 JAN  158 End Gr Fil 19788   1.76  20.8  151  0.8  0.00  0.24
 10 JAN  160 Maturity   19788   1.76  20.8  151  0.8  0.00  0.58
 10 JAN  160 Harvest    19788   1.76  20.8  151  0.8  0.00  0.00


*MAIN GROWTH AND DEVELOPMENT VARIABLES

@     VARIABLE                          SIMULATED     MEASURED
      --------                          ---------     --------
      Anthesis day (dap)                      111          -99
      Physiological maturity day (dap)        160          -99
      Yield at harvest maturity (kg [dm]/    9771          -99
      Number at maturity (no/m2)             3932          -99
      Unit wt at maturity (g [dm]/unit)    0.2485          -99
      Number at maturity (no/unit)          561.7          -99
      Tops weight at maturity (kg [dm]/ha   19788          -99
      By-product produced (stalk) at matu   10095          -99
      Leaf area index, maximum               4.07          -99
      Harvest index at maturity             0.494          -99
      Grain N at maturity (kg/ha)             112          -99
      Tops N at maturity (kg/ha)              151          -99
      Stem N at maturity (kg/ha)               39          -99
      Grain N at maturity (%)                 1.1          -99
      Tops weight at anthesis (kg [dm]/ha    8151          -99
      Tops N at anthesis (kg/ha)              122          -99
      Leaf number per stem at maturity      20.77          -99


*ENVIRONMENTAL AND STRESS FACTORS

 |-----Development Phase------|-------------Environment--------------|---------Stress----------|
                              |--------Average-------|---Cumulative--|  (0=Min, 1=Max Stress)  |
                         Time  Temp  Temp Solar Photop         Evapo |----Water---|--Nitrogen--|
                         Span   Max   Min   Rad  [day]   Rain  Trans  Photo         Photo
                         days    øC    øC MJ/m2     hr     mm     mm  synth Growth  synth Growth
------------------------------------------------------------------------------------------------
 Emergence-End Juvenile    42  19.9   8.3  14.0  11.41  164.3   73.9  0.000  0.000  0.002  0.001
 End Juvenil-Floral Init    4  13.0   5.4  16.2  12.16    0.0   12.1  0.000  0.000  0.000  0.000
 Floral Init-End Lf Grow   54  23.2  10.8  21.3  13.05  181.8  221.5  0.000  0.000  0.081  0.032
 End Lf Grth-Beg Grn Fil   12  28.1  15.9  25.2  13.86   23.9   66.0  0.000  0.000  0.124  0.050
 Grain Filling Phase       35  30.0  16.9  26.3  14.04   92.5  216.6  0.000  0.000  0.430  0.225

                     Maize YIELD :     9771 kg/ha    [Dry weight] 

************************************************************************************************

*DSSAT Cropping System Model Ver. 4.0.2.000               Aug 03, 2016; 15:38:57
                                                                                
*RUN   4        : UYMZ                                                          
 MODEL          : MZCER040 - MAIZE                                              
 EXPERIMENT     : UYMZ0133 SN late to create DSS                                
 TREATMENT  1   : UYMZ                                                          
                                                                                
 CROP           : MAIZE          CULTIVAR : CMEDIO UY        ECOTYPE :IB0001    
 STARTING DATE  : JUL 31 1987                                                   
 PLANTING DATE  : AUG  3 1987    PLANTS/m2 :  7.0     ROW SPACING :  15.cm      
 WEATHER        : UYTA   1987                                                   
 SOIL           : UYSS0N2002     TEXTURE :       -  N20-02    SNIA CLAY RISS    
 SOIL INITIAL C : DEPTH:125cm EXTR. H2O:186.3mm  NO3: 74.8kg/ha  NH4: 23.9kg/ha 
 WATER BALANCE  : AUTOMATIC IRRIGATION - REFILL PROFILE                         
 IRRIGATION     : AUTOMATIC - PLANTING -> MATURITY [ SOIL DEPTH:30.00m 50.%]    
 NITROGEN BAL.  : SOIL-N & N-UPTAKE SIMULATION; NO N-FIXATION                   
 N-FERTILIZER   :       25 kg/ha IN     3 APPLICATIONS                          
 RESIDUE/MANURE : INITIAL :     0 kg/ha ;       0 kg/ha IN     0 APPLICATIONS   
 ENVIRONM. OPT. : DAYL=    0.00  SRAD=    0.00  TMAX=    0.00  TMIN=    0.00    
                  RAIN=    0.00  CO2 = R330.00  DEW =    0.00  WIND=    0.00    
 SIMULATION OPT : WATER   :Y  NITROGEN:Y  N-FIX:N  PHOSPH :N  PESTS  :N         
                  PHOTO   :C  ET      :R  INFIL:S  HYDROL :R  SOM    :G         
 MANAGEMENT OPT : PLANTING:R  IRRIG   :A  FERT :D  RESIDUE:N  HARVEST:M  WTH:M  
                                                                                
*SUMMARY OF SOIL AND GENETIC INPUT PARAMETERS                                   
                                                                                
   SOIL LOWER UPPER   SAT  EXTR  INIT   ROOT   BULK     pH    NO3    NH4    ORG 
  DEPTH LIMIT LIMIT    SW    SW    SW   DIST   DENS                          C  
   cm   cm3/cm3    cm3/cm3    cm3/cm3         g/cm3         ugN/g  ugN/g     %  
------------------------------------------------------------------------------- 
  0-  5 0.331 0.542 0.585 0.211 0.394   1.00   1.11   6.50  15.00   1.50   2.74 
  5- 15 0.331 0.542 0.585 0.211 0.394   1.00   1.11   6.50  15.00   1.50   2.74 
 15- 30 0.331 0.542 0.585 0.211 0.394   1.00   1.11   6.50  15.00   1.50   2.74 
 30- 45 0.290 0.438 0.491 0.148 0.334   0.43   1.26   6.50   8.50   1.50   1.07 
 45- 60 0.292 0.431 0.480 0.138 0.375   0.39   1.29   6.27   4.53   1.50   0.90 
 60- 90 0.293 0.419 0.466 0.126 0.419   0.32   1.34   6.00   0.00   1.50   0.64 
 90-108 0.286 0.408 0.460 0.122 0.408   0.23   1.36   6.00   0.00   1.50   0.35 
108-125 0.276 0.395 0.456 0.119 0.395   0.12   1.38   6.00   0.00   1.50   0.14 
                                                                                
TOT-125  37.3  55.9  62.1  18.6  49.1  <--cm   -  kg/ha-->   74.8   23.9 166127 
SOIL ALBEDO    : 0.09      EVAPORATION LIMIT : 6.00         MIN. FACTOR  : 1.00 
RUNOFF CURVE # :10.00      DRAINAGE RATE     : 0.40         FERT. FACTOR : 1.00 
                                                                                
 MAIZE      CULTIVAR :UY0370-CMEDIO UY          ECOTYPE :IB0001                 
 P1     : 280.00  P2     : 0.0000  P5     : 750.00                              
 G2     : 800.00  G3     :  7.500  PHINT  : 38.900                              
                                                                                
                                                                                
                                                                                
*SIMULATED CROP AND SOIL STATUS AT MAIN DEVELOPMENT STAGES

 RUN NO.     4     UYMZ                    

        CROP GROWTH   BIOMASS         LEAF   CROP N     STRESS  
   DATE  AGE STAGE      kg/ha    LAI   NUM  kg/ha  %   H2O    N 
 ------  --- ---------- -----  -----  ----  ---  ---  ----  ----
 31 JUL    0 Start Sim      0   0.00   0.0    0  0.0  0.00  0.00
  3 AUG    0 Sowing         0   0.00   0.0    0  0.0  0.00  0.00
  4 AUG    1 Germinate      0   0.00   0.0    0  0.0  0.00  0.00
 10 AUG    7 Emergence     28   0.00   1.8    1  4.4  0.00  0.00
 26 SEP   54 End Juveni   343   0.36   9.7   13  3.9  0.00  0.00
 30 SEP   58 Floral Ini   503   0.60  10.7   18  3.7  0.00  0.01
 18 NOV  107 75% Silkin  8753   4.18  22.3  132  1.5  0.00  0.04
 30 NOV  119 Beg Gr Fil 11077   3.93  22.3  139  1.3  0.00  0.04
 11 JAN  161 End Gr Fil 21020   1.54  22.3  162  0.8  0.00  0.25
 14 JAN  164 Maturity   21020   1.54  22.3  162  0.8  0.00  0.59
 14 JAN  164 Harvest    21020   1.54  22.3  162  0.8  0.00  0.00


*MAIN GROWTH AND DEVELOPMENT VARIABLES

@     VARIABLE                          SIMULATED     MEASURED
      --------                          ---------     --------
      Anthesis day (dap)                      107          -99
      Physiological maturity day (dap)        164          -99
      Yield at harvest maturity (kg [dm]/   11083          -99
      Number at maturity (no/m2)             4223          -99
      Unit wt at maturity (g [dm]/unit)    0.2624          -99
      Number at maturity (no/unit)          603.3          -99
      Tops weight at maturity (kg [dm]/ha   21020          -99
      By-product produced (stalk) at matu   10019          -99
      Leaf area index, maximum               4.23          -99
      Harvest index at maturity             0.527          -99
      Grain N at maturity (kg/ha)             122          -99
      Tops N at maturity (kg/ha)              162          -99
      Stem N at maturity (kg/ha)               40          -99
      Grain N at maturity (%)                 1.1          -99
      Tops weight at anthesis (kg [dm]/ha    8537          -99
      Tops N at anthesis (kg/ha)              131          -99
      Leaf number per stem at maturity      22.31          -99


*ENVIRONMENTAL AND STRESS FACTORS

 |-----Development Phase------|-------------Environment--------------|---------Stress----------|
                              |--------Average-------|---Cumulative--|  (0=Min, 1=Max Stress)  |
                         Time  Temp  Temp Solar Photop         Evapo |----Water---|--Nitrogen--|
                         Span   Max   Min   Rad  [day]   Rain  Trans  Photo         Photo
                         days    øC    øC MJ/m2     hr     mm     mm  synth Growth  synth Growth
------------------------------------------------------------------------------------------------
 Emergence-End Juvenile    47  18.8   7.9  13.6  11.36  160.0   83.8  0.000  0.000  0.002  0.001
 End Juvenil-Floral Init    4  20.6   7.3  18.7  12.19    0.0    6.5  0.000  0.000  0.001  0.000
 Floral Init-End Lf Grow   49  24.1  13.8  19.1  13.01  238.4  189.8  0.000  0.000  0.085  0.034
 End Lf Grth-Beg Grn Fil   12  27.6  15.6  26.2  13.79   22.2   70.2  0.000  0.000  0.116  0.046
 Grain Filling Phase       42  26.8  14.9  24.3  14.02  263.5  222.1  0.000  0.000  0.442  0.241

                     Maize YIELD :    11083 kg/ha    [Dry weight] 

************************************************************************************************

*DSSAT Cropping System Model Ver. 4.0.2.000               Aug 03, 2016; 15:38:57
                                                                                
*RUN   5        : UYMZ                                                          
 MODEL          : MZCER040 - MAIZE                                              
 EXPERIMENT     : UYMZ0133 SN late to create DSS                                
 TREATMENT  1   : UYMZ                                                          
                                                                                
 CROP           : MAIZE          CULTIVAR : CMEDIO UY        ECOTYPE :IB0001    
 STARTING DATE  : JUL 31 1987                                                   
 PLANTING DATE  : AUG  3 1987    PLANTS/m2 :  7.0     ROW SPACING :  15.cm      
 WEATHER        : UYTA   1987                                                   
 SOIL           : UYSS0N2002     TEXTURE :       -  N20-02    SNIA CLAY RISS    
 SOIL INITIAL C : DEPTH:125cm EXTR. H2O:186.3mm  NO3: 74.8kg/ha  NH4: 23.9kg/ha 
 WATER BALANCE  : AUTOMATIC IRRIGATION - REFILL PROFILE                         
 IRRIGATION     : AUTOMATIC - PLANTING -> MATURITY [ SOIL DEPTH:30.00m 50.%]    
 NITROGEN BAL.  : SOIL-N & N-UPTAKE SIMULATION; NO N-FIXATION                   
 N-FERTILIZER   :       25 kg/ha IN     3 APPLICATIONS                          
 RESIDUE/MANURE : INITIAL :     0 kg/ha ;       0 kg/ha IN     0 APPLICATIONS   
 ENVIRONM. OPT. : DAYL=    0.00  SRAD=    0.00  TMAX=    0.00  TMIN=    0.00    
                  RAIN=    0.00  CO2 = R330.00  DEW =    0.00  WIND=    0.00    
 SIMULATION OPT : WATER   :Y  NITROGEN:Y  N-FIX:N  PHOSPH :N  PESTS  :N         
                  PHOTO   :C  ET      :R  INFIL:S  HYDROL :R  SOM    :G         
 MANAGEMENT OPT : PLANTING:R  IRRIG   :A  FERT :D  RESIDUE:N  HARVEST:M  WTH:M  
                                                                                
*SUMMARY OF SOIL AND GENETIC INPUT PARAMETERS                                   
                                                                                
   SOIL LOWER UPPER   SAT  EXTR  INIT   ROOT   BULK     pH    NO3    NH4    ORG 
  DEPTH LIMIT LIMIT    SW    SW    SW   DIST   DENS                          C  
   cm   cm3/cm3    cm3/cm3    cm3/cm3         g/cm3         ugN/g  ugN/g     %  
------------------------------------------------------------------------------- 
  0-  5 0.331 0.542 0.585 0.211 0.394   1.00   1.11   6.50  15.00   1.50   2.74 
  5- 15 0.331 0.542 0.585 0.211 0.394   1.00   1.11   6.50  15.00   1.50   2.74 
 15- 30 0.331 0.542 0.585 0.211 0.394   1.00   1.11   6.50  15.00   1.50   2.74 
 30- 45 0.290 0.438 0.491 0.148 0.334   0.43   1.26   6.50   8.50   1.50   1.07 
 45- 60 0.292 0.431 0.480 0.138 0.375   0.39   1.29   6.27   4.53   1.50   0.90 
 60- 90 0.293 0.419 0.466 0.126 0.419   0.32   1.34   6.00   0.00   1.50   0.64 
 90-108 0.286 0.408 0.460 0.122 0.408   0.23   1.36   6.00   0.00   1.50   0.35 
108-125 0.276 0.395 0.456 0.119 0.395   0.12   1.38   6.00   0.00   1.50   0.14 
                                                                                
TOT-125  37.3  55.9  62.1  18.6  49.1  <--cm   -  kg/ha-->   74.8   23.9 166127 
SOIL ALBEDO    : 0.09      EVAPORATION LIMIT : 6.00         MIN. FACTOR  : 1.00 
RUNOFF CURVE # :10.00      DRAINAGE RATE     : 0.40         FERT. FACTOR : 1.00 
                                                                                
 MAIZE      CULTIVAR :UY0370-CMEDIO UY          ECOTYPE :IB0001                 
 P1     : 280.00  P2     : 0.0000  P5     : 750.00                              
 G2     : 800.00  G3     :  7.500  PHINT  : 38.900                              
                                                                                
                                                                                
                                                                                
*SIMULATED CROP AND SOIL STATUS AT MAIN DEVELOPMENT STAGES

 RUN NO.     5     UYMZ                    

        CROP GROWTH   BIOMASS         LEAF   CROP N     STRESS  
   DATE  AGE STAGE      kg/ha    LAI   NUM  kg/ha  %   H2O    N 
 ------  --- ---------- -----  -----  ----  ---  ---  ----  ----
 31 JUL    0 Start Sim      0   0.00   0.0    0  0.0  0.00  0.00
  3 AUG    0 Sowing         0   0.00   0.0    0  0.0  0.00  0.00
  4 AUG    1 Germinate      0   0.00   0.0    0  0.0  0.00  0.00
 16 AUG   13 Emergence     28   0.00   2.0    1  4.4  0.00  0.00
 14 SEP   42 End Juveni   366   0.67   9.9   14  3.9  0.00  0.00
 18 SEP   46 Floral Ini   498   0.85  10.7   18  3.7  0.00  0.01
 19 NOV  108 75% Silkin  8217   3.67  22.1  120  1.5  0.00  0.04
  3 DEC  122 Beg Gr Fil 10698   3.37  22.1  127  1.2  0.00  0.05
  9 JAN  159 End Gr Fil 19350   1.56  22.1  150  0.8  0.00  0.22
 11 JAN  161 Maturity   19350   1.56  22.1  150  0.8  0.00  0.50
 11 JAN  161 Harvest    19350   1.56  22.1  150  0.8  0.00  0.00


*MAIN GROWTH AND DEVELOPMENT VARIABLES

@     VARIABLE                          SIMULATED     MEASURED
      --------                          ---------     --------
      Anthesis day (dap)                      108          -99
      Physiological maturity day (dap)        161          -99
      Yield at harvest maturity (kg [dm]/    9188          -99
      Number at maturity (no/m2)             3547          -99
      Unit wt at maturity (g [dm]/unit)    0.2590          -99
      Number at maturity (no/unit)          506.7          -99
      Tops weight at maturity (kg [dm]/ha   19350          -99
      By-product produced (stalk) at matu   10241          -99
      Leaf area index, maximum               3.73          -99
      Harvest index at maturity             0.475          -99
      Grain N at maturity (kg/ha)             108          -99
      Tops N at maturity (kg/ha)              150          -99
      Stem N at maturity (kg/ha)               42          -99
      Grain N at maturity (%)                 1.2          -99
      Tops weight at anthesis (kg [dm]/ha    8097          -99
      Tops N at anthesis (kg/ha)              120          -99
      Leaf number per stem at maturity      22.15          -99


*ENVIRONMENTAL AND STRESS FACTORS

 |-----Development Phase------|-------------Environment--------------|---------Stress----------|
                              |--------Average-------|---Cumulative--|  (0=Min, 1=Max Stress)  |
                         Time  Temp  Temp Solar Photop         Evapo |----Water---|--Nitrogen--|
                         Span   Max   Min   Rad  [day]   Rain  Trans  Photo         Photo
                         days    øC    øC MJ/m2     hr     mm     mm  synth Growth  synth Growth
------------------------------------------------------------------------------------------------
 Emergence-End Juvenile    29  22.5  12.4  11.9  11.26   26.9   35.7  0.000  0.000  0.003  0.001
 End Juvenil-Floral Init    4  21.9  11.1   9.8  11.79   19.7    6.3  0.000  0.000  0.001  0.000
 Floral Init-End Lf Grow   62  21.7  11.2  17.9  12.84  264.6  222.0  0.000  0.000  0.092  0.037
 End Lf Grth-Beg Grn Fil   14  25.9  14.4  22.0  13.83  123.1   69.2  0.000  0.000  0.135  0.054
 Grain Filling Phase       37  28.0  17.2  22.4  14.03  183.0  189.5  0.000  0.000  0.412  0.204

                     Maize YIELD :     9188 kg/ha    [Dry weight] 

************************************************************************************************

*DSSAT Cropping System Model Ver. 4.0.2.000               Aug 03, 2016; 15:38:57
                                                                                
*RUN   6        : UYMZ                                                          
 MODEL          : MZCER040 - MAIZE                                              
 EXPERIMENT     : UYMZ0133 SN late to create DSS                                
 TREATMENT  1   : UYMZ                                                          
                                                                                
 CROP           : MAIZE          CULTIVAR : CMEDIO UY        ECOTYPE :IB0001    
 STARTING DATE  : JUL 31 1987                                                   
 PLANTING DATE  : AUG  3 1987    PLANTS/m2 :  7.0     ROW SPACING :  15.cm      
 WEATHER        : UYTA   1987                                                   
 SOIL           : UYSS0N2002     TEXTURE :       -  N20-02    SNIA CLAY RISS    
 SOIL INITIAL C : DEPTH:125cm EXTR. H2O:186.3mm  NO3: 74.8kg/ha  NH4: 23.9kg/ha 
 WATER BALANCE  : AUTOMATIC IRRIGATION - REFILL PROFILE                         
 IRRIGATION     : AUTOMATIC - PLANTING -> MATURITY [ SOIL DEPTH:30.00m 50.%]    
 NITROGEN BAL.  : SOIL-N & N-UPTAKE SIMULATION; NO N-FIXATION                   
 N-FERTILIZER   :       25 kg/ha IN     3 APPLICATIONS                          
 RESIDUE/MANURE : INITIAL :     0 kg/ha ;       0 kg/ha IN     0 APPLICATIONS   
 ENVIRONM. OPT. : DAYL=    0.00  SRAD=    0.00  TMAX=    0.00  TMIN=    0.00    
                  RAIN=    0.00  CO2 = R330.00  DEW =    0.00  WIND=    0.00    
 SIMULATION OPT : WATER   :Y  NITROGEN:Y  N-FIX:N  PHOSPH :N  PESTS  :N         
                  PHOTO   :C  ET      :R  INFIL:S  HYDROL :R  SOM    :G         
 MANAGEMENT OPT : PLANTING:R  IRRIG   :A  FERT :D  RESIDUE:N  HARVEST:M  WTH:M  
                                                                                
*SUMMARY OF SOIL AND GENETIC INPUT PARAMETERS                                   
                                                                                
   SOIL LOWER UPPER   SAT  EXTR  INIT   ROOT   BULK     pH    NO3    NH4    ORG 
  DEPTH LIMIT LIMIT    SW    SW    SW   DIST   DENS                          C  
   cm   cm3/cm3    cm3/cm3    cm3/cm3         g/cm3         ugN/g  ugN/g     %  
------------------------------------------------------------------------------- 
  0-  5 0.331 0.542 0.585 0.211 0.394   1.00   1.11   6.50  15.00   1.50   2.74 
  5- 15 0.331 0.542 0.585 0.211 0.394   1.00   1.11   6.50  15.00   1.50   2.74 
 15- 30 0.331 0.542 0.585 0.211 0.394   1.00   1.11   6.50  15.00   1.50   2.74 
 30- 45 0.290 0.438 0.491 0.148 0.334   0.43   1.26   6.50   8.50   1.50   1.07 
 45- 60 0.292 0.431 0.480 0.138 0.375   0.39   1.29   6.27   4.53   1.50   0.90 
 60- 90 0.293 0.419 0.466 0.126 0.419   0.32   1.34   6.00   0.00   1.50   0.64 
 90-108 0.286 0.408 0.460 0.122 0.408   0.23   1.36   6.00   0.00   1.50   0.35 
108-125 0.276 0.395 0.456 0.119 0.395   0.12   1.38   6.00   0.00   1.50   0.14 
                                                                                
TOT-125  37.3  55.9  62.1  18.6  49.1  <--cm   -  kg/ha-->   74.8   23.9 166127 
SOIL ALBEDO    : 0.09      EVAPORATION LIMIT : 6.00         MIN. FACTOR  : 1.00 
RUNOFF CURVE # :10.00      DRAINAGE RATE     : 0.40         FERT. FACTOR : 1.00 
                                                                                
 MAIZE      CULTIVAR :UY0370-CMEDIO UY          ECOTYPE :IB0001                 
 P1     : 280.00  P2     : 0.0000  P5     : 750.00                              
 G2     : 800.00  G3     :  7.500  PHINT  : 38.900                              
                                                                                
                                                                                
                                                                                
*SIMULATED CROP AND SOIL STATUS AT MAIN DEVELOPMENT STAGES

 RUN NO.     6     UYMZ                    

        CROP GROWTH   BIOMASS         LEAF   CROP N     STRESS  
   DATE  AGE STAGE      kg/ha    LAI   NUM  kg/ha  %   H2O    N 
 ------  --- ---------- -----  -----  ----  ---  ---  ----  ----
 30 JUL    0 Start Sim      0   0.00   0.0    0  0.0  0.00  0.00
  2 AUG    0 Sowing         0   0.00   0.0    0  0.0  0.00  0.00
  3 AUG    1 Germinate      0   0.00   0.0    0  0.0  0.00  0.00
 18 AUG   16 Emergence     28   0.00   1.8    1  4.4  0.00  0.00
 26 SEP   55 End Juveni   309   0.41   9.5   13  4.1  0.00  0.00
 30 SEP   59 Floral Ini   439   0.60  10.3   16  3.7  0.00  0.01
 26 NOV  116 75% Silkin  8725   3.61  21.8  129  1.5  0.00  0.04
 10 DEC  130 Beg Gr Fil 11401   3.33  21.8  136  1.2  0.00  0.05
 15 JAN  166 End Gr Fil 19695   1.58  21.8  153  0.8  0.00  0.22
 18 JAN  169 Maturity   19695   1.58  21.8  153  0.8  0.00  0.54
 18 JAN  169 Harvest    19695   1.58  21.8  153  0.8  0.00  0.00


*MAIN GROWTH AND DEVELOPMENT VARIABLES

@     VARIABLE                          SIMULATED     MEASURED
      --------                          ---------     --------
      Anthesis day (dap)                      116          -99
      Physiological maturity day (dap)        169          -99
      Yield at harvest maturity (kg [dm]/    9780          -99
      Number at maturity (no/m2)             3840          -99
      Unit wt at maturity (g [dm]/unit)    0.2547          -99
      Number at maturity (no/unit)          548.6          -99
      Tops weight at maturity (kg [dm]/ha   19695          -99
      By-product produced (stalk) at matu    9997          -99
      Leaf area index, maximum               3.65          -99
      Harvest index at maturity             0.497          -99
      Grain N at maturity (kg/ha)             114          -99
      Tops N at maturity (kg/ha)              153          -99
      Stem N at maturity (kg/ha)               39          -99
      Grain N at maturity (%)                 1.2          -99
      Tops weight at anthesis (kg [dm]/ha    8561          -99
      Tops N at anthesis (kg/ha)              129          -99
      Leaf number per stem at maturity      21.79          -99


*ENVIRONMENTAL AND STRESS FACTORS

 |-----Development Phase------|-------------Environment--------------|---------Stress----------|
                              |--------Average-------|---Cumulative--|  (0=Min, 1=Max Stress)  |
                         Time  Temp  Temp Solar Photop         Evapo |----Water---|--Nitrogen--|
                         Span   Max   Min   Rad  [day]   Rain  Trans  Photo         Photo
                         days    øC    øC MJ/m2     hr     mm     mm  synth Growth  synth Growth
------------------------------------------------------------------------------------------------
 Emergence-End Juvenile    39  20.1   9.5  14.1  11.52   44.6   55.9  0.000  0.000  0.002  0.001
 End Juvenil-Floral Init    4  17.0   3.8  21.6  12.22   17.0   13.4  0.000  0.000  0.000  0.000
 Floral Init-End Lf Grow   57  23.6  10.3  22.2  13.15  109.6  250.6  0.000  0.000  0.085  0.034
 End Lf Grth-Beg Grn Fil   14  27.1  14.3  24.5  13.95   64.0   75.1  0.000  0.000  0.127  0.051
 Grain Filling Phase       36  28.2  17.1  22.3  14.02  245.1  184.3  0.000  0.000  0.412  0.204

                     Maize YIELD :     9780 kg/ha    [Dry weight] 

************************************************************************************************
