*GROWTH ASPECTS OUTPUT FILE

*DSSAT Cropping System Model Ver. 4.0.2.000               Aug 03, 2016; 15:38:57

*RUN   1        : UYMZ                    
 MODEL          : MZCER040 - Maize           
 EXPERIMENT     : UYMZ0133 MZ    late to create DSS                             
 TREATMENT  1   : UYMZ                    

@YEAR DOY   DAS   DAP   L#SD   GSTD   LAID   LWAD   SWAD   GWAD   RWAD   CWAD   G#AD   GWGD   HIAD   PWAD   P#AD   WSPD   WSGD   NSTD   EWSD   LN%D   SH%D   HIPD   PWDD   PWTD     SLAD   CHTD   CWID   RDPD   RL1D   RL2D   RL3D   RL4D   RL5D   RL6D   RL7D   RL8D   RL9D   RL10   CDAD   LDAD   SDAD   SNW0C   SNW1C
 1987 215     3     0    0.0      0   0.00      0      0      0      0      0      0    0.0  0.000      0      0  0.000  0.000  0.000  0.000   0.00   0.00   0.00      0      0      0.0   0.00   0.00   0.03   0.00   0.00   0.00   0.00   0.00   0.00   0.00   0.00   0.00   0.00      0      0      0       0       0
 1987 216     4     1    0.0      0   0.00      0      0      0      0      0      0    0.0  0.000      0      0  0.000  0.000  0.000  0.000   0.00   0.00   0.00      0      0      0.0   0.00   0.00   0.03   0.00   0.00   0.00   0.00   0.00   0.00   0.00   0.00   0.00   0.00      0      0      0       0       0
 1987 217     5     2    0.0      0   0.00      0      0      0      0      0      0    0.0  0.000      0      0  0.000  0.000  0.000  0.000   0.00   0.00   0.00      0      0      0.0   0.00   0.00   0.03   0.00   0.00   0.00   0.00   0.00   0.00   0.00   0.00   0.00   0.00      0      0      0       0       0
 1987 218     6     3    0.0      0   0.00      0      0      0      0      0      0    0.0  0.000      0      0  0.000  0.000  0.000  0.000   0.00   0.00   0.00      0      0      0.0   0.00   0.00   0.03   0.00   0.00   0.00   0.00   0.00   0.00   0.00   0.00   0.00   0.00      0      0      0       0       0
 1987 219     7     4    0.0      0   0.00      0      0      0      0      0      0    0.0  0.000      0      0  0.000  0.000  0.000  0.000   0.00   0.00   0.00      0      0      0.0   0.00   0.00   0.04   0.00   0.00   0.00   0.00   0.00   0.00   0.00   0.00   0.00   0.00      0      0      0       0       0
 1987 220     8     5    0.0      0   0.00      0      0      0      0      0      0    0.0  0.000      0      0  0.000  0.000  0.000  0.000   0.00   0.00   0.00      0      0      0.0   0.00   0.00   0.04   0.00   0.00   0.00   0.00   0.00   0.00   0.00   0.00   0.00   0.00      0      0      0       0       0
 1987 221     9     6    0.0      0   0.00      0      0      0      0      0      0    0.0  0.000      0      0  0.000  0.000  0.000  0.000   0.00   0.00   0.00      0      0      0.0   0.00   0.00   0.05   0.00   0.00   0.00   0.00   0.00   0.00   0.00   0.00   0.00   0.00      0      0      0       0       0
 1987 222    10     7    0.0      0   0.00      0      0      0      0      0      0    0.0  0.000      0      0  0.000  0.000  0.000  0.000   0.00   0.00   0.00      0      0      0.0   0.00   0.00   0.06   0.00   0.00   0.00   0.00   0.00   0.00   0.00   0.00   0.00   0.00      0      0      0       0       0
 1987 223    11     8    0.0      0   0.00      0      0      0      0      0      0    0.0  0.000      0      0  0.000  0.000  0.000  0.000   0.00   0.00   0.00      0      0      0.0   0.00   0.00   0.07   0.00   0.00   0.00   0.00   0.00   0.00   0.00   0.00   0.00   0.00      0      0      0       0       0
 1987 224    12     9    0.0      0   0.00      0      0      0      0      0      0    0.0  0.000      0      0  0.000  0.000  0.000  0.000   0.00   0.00   0.00      0      0      0.0   0.00   0.00   0.08   0.00   0.00   0.00   0.00   0.00   0.00   0.00   0.00   0.00   0.00      0      0      0       0       0
 1987 225    13    10    0.0      0   0.00      0      0      0      0      0      0    0.0  0.000      0      0  0.000  0.000  0.000  0.000   0.00   0.00   0.00      0      0      0.0   0.00   0.00   0.09   0.00   0.00   0.00   0.00   0.00   0.00   0.00   0.00   0.00   0.00      0      0      0       0       0
 1987 226    14    11    0.0      0   0.00      0      0      0      0      0      0    0.0  0.000      0      0  0.000  0.000  0.000  0.000   0.00   0.00   0.00      0      0      0.0   0.00   0.00   0.10   0.00   0.00   0.00   0.00   0.00   0.00   0.00   0.00   0.00   0.00      0      0      0       0       0
 1987 227    15    12    0.0      0   0.00      0      0      0      0      0      0    0.0  0.000      0      0  0.000  0.000  0.000  0.000   0.00   0.00   0.00      0      0      0.0   0.00   0.00   0.11   0.00   0.00   0.00   0.00   0.00   0.00   0.00   0.00   0.00   0.00      0      0      0       0       0
 1987 228    16    13    0.0      0   0.00      0      0      0      0      0      0    0.0  0.000      0      0  0.000  0.000  0.000  0.000   0.00   0.00   0.00      0      0      0.0   0.00   0.00   0.12   0.00   0.00   0.00   0.00   0.00   0.00   0.00   0.00   0.00   0.00      0      0      0       0       0
 1987 229    17    14    0.0      0   0.00      0      0      0      0      0      0    0.0  0.000      0      0  0.000  0.000  0.000  0.000   0.00   0.00   0.00      0      0      0.0   0.00   0.00   0.12   0.00   0.00   0.00   0.00   0.00   0.00   0.00   0.00   0.00   0.00      0      0      0       0       0
 1987 230    18    15    0.0      0   0.00      0      0      0      0      0      0    0.0  0.000      0      0  0.000  0.000  0.000  0.000   0.00   0.00   0.00      0      0      0.0   0.00   0.00   0.12   0.00   0.00   0.00   0.00   0.00   0.00   0.00   0.00   0.00   0.00      0      0      0       0       0
 1987 231    19    16    0.0      0   0.00      0      0      0      0      0      0    0.0  0.000      0      0  0.000  0.000  0.000  0.000   0.00   0.00   0.00      0      0      0.0   0.00   0.00   0.12   0.00   0.00   0.00   0.00   0.00   0.00   0.00   0.00   0.00   0.00      0      0      0       0       0
 1987 232    20    17    1.0      1   0.00     14     14      0     14     28      0    0.0  0.000      0      0  0.000  0.000  0.012  0.000   4.40   0.00   0.00      0      0      5.5   0.00   0.00   0.12   0.28   0.09   0.00   0.00   0.00   0.00   0.00   0.00   0.00   0.00      0      0      0       0       0
 1987 233    21    18    1.0      1   0.00     14     14      0     14     28      0    0.0  0.000      0      0  0.000  0.000  0.020  0.000   4.56   0.00   0.00      0      0      8.9   0.00   0.00   0.12   0.28   0.09   0.00   0.00   0.00   0.00   0.00   0.00   0.00   0.00      0      0      0       0       0
 1987 234    22    19    1.0      1   0.00     14     14      0     14     28      0    0.0  0.000      0      0  0.000  0.000  0.000  0.000   4.56   0.00   0.00      0      0     15.0   0.00   0.00   0.12   0.28   0.09   0.00   0.00   0.00   0.00   0.00   0.00   0.00   0.00      0      0      0       0       0
 1987 235    23    20    1.0      1   0.00     14     14      0     14     28      0    0.0  0.000      0      0  0.000  0.000  0.000  0.000   4.56   0.00   0.00      0      0     21.8   0.00   0.00   0.13   0.28   0.10   0.00   0.00   0.00   0.00   0.00   0.00   0.00   0.00      0      0      0       0       0
 1987 236    24    21    2.0      1   0.00     14     14      0     14     28      0    0.0  0.000      0      0  0.000  0.000  0.000  0.000   4.56   0.00   0.00      0      0     31.2   0.00   0.00   0.14   0.28   0.10   0.00   0.00   0.00   0.00   0.00   0.00   0.00   0.00      0      0      0       0       0
 1987 237    25    22    2.0      1   0.01     14     14      0     15     28      0    0.0  0.000      0      0  0.000  0.000  0.000  0.000   4.56   0.00   0.00      0      0     48.8   0.00   0.00   0.15   0.28   0.10   0.00   0.00   0.00   0.00   0.00   0.00   0.00   0.00      0      0      0       0       0
 1987 238    26    23    2.0      1   0.01     14     14      0     16     28      0    0.0  0.000      0      0  0.000  0.000  0.000  0.000   4.48   0.00   0.00      0      0     62.4   0.00   0.00   0.15   0.30   0.12   0.00   0.00   0.00   0.00   0.00   0.00   0.00   0.00      0      0      0       0       0
 1987 239    27    24    3.0      1   0.01     14     14      0     17     28      0    0.0  0.000      0      0  0.000  0.000  0.000  0.000   4.46   0.00   0.00      0      0     80.9   0.00   0.00   0.16   0.31   0.13   0.00   0.00   0.00   0.00   0.00   0.00   0.00   0.00      0      0      0       0       0
 1987 240    28    25    3.0      1   0.01     14     14      0     17     28      0    0.0  0.000      0      0  0.000  0.000  0.000  0.000   4.46   0.00   0.00      0      0     95.5   0.00   0.00   0.17   0.29   0.12   0.00   0.00   0.00   0.00   0.00   0.00   0.00   0.00      0      0      0       0       0
 1987 241    29    26    3.0      1   0.01     14     14      0     18     28      0    0.0  0.000      0      0  0.000  0.000  0.000  0.000   4.46   0.00   0.00      0      0    101.4   0.00   0.00   0.17   0.28   0.12   0.00   0.00   0.00   0.00   0.00   0.00   0.00   0.00      0      0      0       0       0
 1987 242    30    27    3.0      1   0.01     14     14      0     19     28      0    0.0  0.000      0      0  0.000  0.000  0.000  0.206   4.43   0.00   0.00      0      0    102.3   0.00   0.00   0.17   0.27   0.12   0.00   0.00   0.00   0.00   0.00   0.00   0.00   0.00      0      0      0       0       0
 1987 243    31    28    3.0      1   0.01     14     14      0     20     28      0    0.0  0.000      0      0  0.000  0.000  0.000  0.005   4.42   0.00   0.00      0      0     95.8   0.00   0.00   0.18   0.28   0.13   0.00   0.00   0.00   0.00   0.00   0.00   0.00   0.00      0      0      0       0       0
 1987 244    32    29    3.0      1   0.01     14     14      0     21     28      0    0.0  0.000      0      0  0.000  0.000  0.000  0.004   4.42   0.00   0.00      0      0    105.0   0.00   0.00   0.18   0.28   0.14   0.01   0.00   0.00   0.00   0.00   0.00   0.00   0.00      0      0      0       0       0
 1987 245    33    30    3.0      1   0.02     14     14      0     21     28      0    0.0  0.000      0      0  0.000  0.000  0.000  0.001   4.42   0.00   0.00      0      0    113.8   0.00   0.00   0.18   0.28   0.15   0.01   0.00   0.00   0.00   0.00   0.00   0.00   0.00      0      0      0       0       0
 1987 246    34    31    3.0      1   0.02     14     14      0     23     28      0    0.0  0.000      0      0  0.000  0.000  0.000  0.000   4.39   0.00   0.00      0      0    124.4   0.00   0.00   0.19   0.30   0.17   0.01   0.00   0.00   0.00   0.00   0.00   0.00   0.00      0      0      0       0       0
 1987 247    35    32    3.0      1   0.02     14     14      0     25     28      0    0.0  0.000      0      0  0.000  0.000  0.000  0.000   4.38   0.00   0.00      0      0    118.5   0.00   0.00   0.19   0.32   0.19   0.02   0.00   0.00   0.00   0.00   0.00   0.00   0.00      0      0      0       0       1
 1987 248    36    33    4.0      1   0.02     14     14      0     26     28      0    0.0  0.000      0      0  0.000  0.000  0.000  0.000   4.38   0.00   0.00      0      0    112.7   0.00   0.00   0.19   0.32   0.19   0.02   0.00   0.00   0.00   0.00   0.00   0.00   0.00      0      0      0       0       1
 1987 249    37    34    4.0      1   0.02     14     14      0     27     28      0    0.0  0.000      0      0  0.000  0.000  0.000  0.000   4.37   0.00   0.00      0      0    112.5   0.00   0.00   0.19   0.34   0.21   0.03   0.00   0.00   0.00   0.00   0.00   0.00   0.00      0      0      0       0       1
 1987 250    38    35    4.0      1   0.02     14     14      0     29     28      0    0.0  0.000      0      0  0.000  0.000  0.000  0.000   4.36   0.00   0.00      0      0    137.7   0.00   0.00   0.20   0.35   0.23   0.03   0.00   0.00   0.00   0.00   0.00   0.00   0.00      0      0      0       0       1
 1987 251    39    36    4.0      1   0.03     14     14      0     31     28      0    0.0  0.000      0      0  0.000  0.000  0.000  0.000   4.34   0.00   0.00      0      0    203.1   0.00   0.00   0.21   0.37   0.24   0.04   0.00   0.00   0.00   0.00   0.00   0.00   0.00      0      0      0       0       1
 1987 252    40    37    4.0      1   0.04     15     14      0     32     29      0    0.0  0.000      0      0  0.000  0.000  0.000  0.000   4.27   0.00   0.00      0      0    278.1   0.00   0.00   0.22   0.37   0.25   0.04   0.00   0.00   0.00   0.00   0.00   0.00   0.00      0      0      0       0       1
 1987 253    41    38    4.0      1   0.05     17     14      0     35     31      0    0.0  0.000      0      0  0.000  0.000  0.000  0.000   3.99   0.00   0.00      0      0    277.1   0.00   0.00   0.22   0.40   0.28   0.06   0.00   0.00   0.00   0.00   0.00   0.00   0.00      0      0      0       0       1
 1987 254    42    39    4.0      1   0.05     19     14      0     40     33      0    0.0  0.000      0      0  0.000  0.000  0.000  0.000   3.99   0.00   0.00      0      0    267.5   0.00   0.00   0.22   0.44   0.32   0.08   0.00   0.00   0.00   0.00   0.00   0.00   0.00      0      0      0       0       1
 1987 255    43    40    5.0      1   0.05     22     14      0     46     36      0    0.0  0.000      0      0  0.000  0.000  0.000  0.000   4.01   0.00   0.00      0      0    247.0   0.00   0.00   0.23   0.49   0.37   0.11   0.00   0.00   0.00   0.00   0.00   0.00   0.00      0      0      0       0       2
 1987 256    44    41    5.0      1   0.07     28     14      0     52     42      0    0.0  0.000      0      0  0.000  0.000  0.000  0.000   3.66   0.00   0.00      0      0    247.2   0.00   0.00   0.24   0.54   0.41   0.14   0.00   0.00   0.00   0.00   0.00   0.00   0.00      0      0      0       0       2
 1987 257    45    42    5.0      1   0.08     34     14      0     53     48      0    0.0  0.000      0      0  0.000  0.000  0.000  0.000   3.66   0.00   0.00      0      0    245.3   0.00   0.00   0.25   0.54   0.42   0.14   0.00   0.00   0.00   0.00   0.00   0.00   0.00      0      0      0       0       2
 1987 258    46    43    5.0      1   0.09     38     14      0     58     52      0    0.0  0.000      0      0  0.000  0.000  0.000  0.000   3.96   0.00   0.00      0      0    243.9   0.00   0.00   0.25   0.53   0.43   0.17   0.00   0.00   0.00   0.00   0.00   0.00   0.00      0      0      0       0       2
 1987 259    47    44    5.0      1   0.09     38     14      0     63     52      0    0.0  0.000      0      0  0.000  0.000  0.000  0.000   4.16   0.00   0.00      0      0    223.0   0.00   0.00   0.25   0.52   0.45   0.19   0.00   0.00   0.00   0.00   0.00   0.00   0.00      0      0      0       0       3
 1987 260    48    45    5.0      1   0.09     41     14      0     70     55      0    0.0  0.000      0      0  0.000  0.000  0.000  0.070   3.94   0.00   0.00      0      0    222.6   0.00   0.00   0.26   0.54   0.49   0.23   0.00   0.00   0.00   0.00   0.00   0.00   0.00      0      0      0       0       3
 1987 261    49    46    5.0      1   0.10     45     14      0     76     59      0    0.0  0.000      0      0  0.000  0.000  0.007  0.029   3.97   0.00   0.00      0      0    222.3   0.00   0.00   0.26   0.56   0.53   0.27   0.00   0.00   0.00   0.00   0.00   0.00   0.00      0      0      0       0       3
 1987 262    50    47    5.0      1   0.10     47     14      0     84     61      0    0.0  0.000      0      0  0.000  0.000  0.000  0.000   4.08   0.00   0.00      0      0    211.5   0.00   0.00   0.26   0.60   0.59   0.33   0.00   0.00   0.00   0.00   0.00   0.00   0.00      0      0      0       0       3
 1987 263    51    48    6.0      1   0.08     49     14      0     94     63      0    0.0  0.000      0      0  0.000  0.000  0.000  0.000   4.02   0.00   0.00      0      0    168.9   0.00   0.00   0.27   0.65   0.66   0.40   0.00   0.00   0.00   0.00   0.00   0.00   0.00      0      0      0       0       4
 1987 264    52    49    6.0      1   0.08     51     14      0     98     65      0    0.0  0.000      0      0  0.000  0.000  0.000  0.000   4.10   0.00   0.00      0      0    164.7   0.00   0.00   0.27   0.67   0.68   0.42   0.00   0.00   0.00   0.00   0.00   0.00   0.00      0      0      0       0       4
 1987 265    53    50    6.0      1   0.07     53     14      0    103     67      0    0.0  0.000      0      0  0.000  0.000  0.000  0.000   4.08   0.00   0.00      0      0    128.1   0.00   0.00   0.27   0.69   0.71   0.45   0.00   0.00   0.00   0.00   0.00   0.00   0.00      0      0      0       0       5
 1987 266    54    51    6.0      1   0.08     57     14      0    108     71      0    0.0  0.000      0      0  0.000  0.000  0.000  0.000   3.94   0.00   0.00      0      0    134.0   0.00   0.00   0.27   0.71   0.75   0.49   0.00   0.00   0.00   0.00   0.00   0.00   0.00      0      0      0       0       5
 1987 267    55    52    6.0      1   0.09     63     14      0    118     77      0    0.0  0.000      0      0  0.000  0.000  0.000  0.000   3.83   0.00   0.00      0      0    138.5   0.00   0.00   0.28   0.77   0.81   0.56   0.00   0.00   0.00   0.00   0.00   0.00   0.00      0      0      0       0       6
 1987 268    56    53    6.0      1   0.11     73     14      0    128     87      0    0.0  0.000      0      0  0.000  0.000  0.000  0.000   3.67   0.00   0.00      0      0    147.2   0.00   0.00   0.29   0.82   0.87   0.63   0.00   0.00   0.00   0.00   0.00   0.00   0.00      0      0      0       0       6
 1987 269    57    54    6.0      1   0.14     89     14      0    135    103      0    0.0  0.000      0      0  0.000  0.000  0.000  0.000   3.49   0.00   0.00      0      0    155.8   0.00   0.00   0.30   0.85   0.91   0.69   0.00   0.00   0.00   0.00   0.00   0.00   0.00      0      0      0       0       7
 1987 270    58    55    7.0      1   0.16    101     14      0    148    115      0    0.0  0.000      0      0  0.000  0.000  0.000  0.000   3.67   0.00   0.00      0      0    159.8   0.00   0.00   0.31   0.92   0.99   0.79   0.00   0.00   0.00   0.00   0.00   0.00   0.00      0      0      0       0       8
 1987 271    59    56    7.0      1   0.18    112     14      0    170    126      0    0.0  0.000      0      0  0.000  0.000  0.000  0.000   3.74   0.00   0.00      0      0    162.3   0.00   0.00   0.31   1.02   1.12   0.95   0.00   0.00   0.00   0.00   0.00   0.00   0.00      0      0      0       0       8
 1987 272    60    57    7.0      1   0.21    127     14      0    190    141      0    0.0  0.000      0      0  0.000  0.000  0.000  0.000   3.61   0.00   0.00      0      0    164.6   0.00   0.00   0.32   1.12   1.23   1.10   0.01   0.00   0.00   0.00   0.00   0.00   0.00      0      0      0       0       9
 1987 273    61    58    7.0      1   0.24    142     14      0    193    156      0    0.0  0.000      0      0  0.000  0.000  0.000  0.000   3.66   0.00   0.00      0      0    165.9   0.00   0.00   0.32   1.13   1.25   1.12   0.01   0.00   0.00   0.00   0.00   0.00   0.00      0      0      0       0      10
 1987 274    62    59    7.0      1   0.26    156     14      0    228    170      0    0.0  0.000      0      0  0.000  0.000  0.000  0.000   3.72   0.00   0.00      0      0    166.5   0.00   0.00   0.33   1.27   1.45   1.37   0.04   0.00   0.00   0.00   0.00   0.00   0.00      0      0      0       0      11
 1987 275    63    60    8.0      1   0.27    165     14      0    256    179      0    0.0  0.000      0      0  0.000  0.000  0.000  0.000   3.81   0.00   0.00      0      0    166.7   0.00   0.00   0.34   1.38   1.61   1.57   0.06   0.00   0.00   0.00   0.00   0.00   0.00      0      0      0       0      12
 1987 276    64    61    8.0      1   0.29    177     14      0    281    191      0    0.0  0.000      0      0  0.000  0.000  0.000  0.000   3.76   0.00   0.00      0      0    166.2   0.00   0.00   0.35   1.47   1.75   1.74   0.08   0.00   0.00   0.00   0.00   0.00   0.00      0      0      0       0      14
 1987 277    65    62    8.0      1   0.33    199     14      0    322    213      0    0.0  0.000      0      0  0.000  0.000  0.000  0.000   3.56   0.00   0.00      0      0    166.2   0.00   0.00   0.36   1.63   1.98   2.02   0.12   0.00   0.00   0.00   0.00   0.00   0.00      0      0      0       0      15
 1987 278    66    63    8.0      1   0.38    228     14      0    366    242      0    0.0  0.000      0      0  0.000  0.000  0.000  0.000   3.50   0.00   0.00      0      0    165.6   0.00   0.00   0.37   1.80   2.23   2.32   0.19   0.00   0.00   0.00   0.00   0.00   0.00      0      0      0       0      17
 1987 279    67    64    8.0      1   0.42    255     14      0    394    269      0    0.0  0.000      0      0  0.000  0.000  0.000  0.000   3.53   0.00   0.00      0      0    164.7   0.00   0.00   0.39   1.90   2.38   2.51   0.23   0.00   0.00   0.00   0.00   0.00   0.00      0      0      0       0      18
 1987 280    68    65    9.0      1   0.46    283     14      0    403    297      0    0.0  0.000      0      0  0.000  0.000  0.000  0.000   3.55   0.00   0.00      0      0    163.6   0.00   0.00   0.40   1.93   2.42   2.56   0.25   0.00   0.00   0.00   0.00   0.00   0.00      0      0      0       0      20
 1987 281    69    66    9.0      1   0.50    310     14      0    436    324      0    0.0  0.000      0      0  0.000  0.000  0.000  0.000   3.57   0.00   0.00      0      0    162.5   0.00   0.00   0.41   2.05   2.59   2.78   0.32   0.00   0.00   0.00   0.00   0.00   0.00      0      0      0       0      22
 1987 282    70    67    9.0      2   0.55    315     14      0    515    329      0    0.0  0.000      0      0  0.000  0.000  0.000  0.000   3.81   0.00   0.00      0      0    175.1   0.00   0.00   0.42   2.34   2.99   3.27   0.49   0.00   0.00   0.00   0.00   0.00   0.00      0      0      0       0      25
 1987 283    71    68   10.0      2   0.65    376     14      0    559    390      0    0.0  0.000      0      0  0.000  0.000  0.003  0.000   3.29   0.00   0.00      0      0    172.1   0.00   0.00   0.44   2.49   3.21   3.54   0.60   0.00   0.00   0.00   0.00   0.00   0.00      0      0      0       0      27
 1987 284    72    69   10.0      2   0.73    430     14      0    596    444      0    0.0  0.000      0      0  0.000  0.000  0.000  0.000   3.35   0.00   0.00      0      0    169.5   0.00   0.00   0.46   2.56   3.39   3.77   0.71   0.00   0.00   0.00   0.00   0.00   0.00      0      0      0       0      30
 1987 285    73    70   10.0      2   0.80    478     14      0    679    492      0    0.0  0.000      0      0  0.000  0.000  0.000  0.000   3.78   0.00   0.00      0      0    167.4   0.00   0.00   0.47   2.66   3.78   4.00   0.94   0.03   0.00   0.00   0.00   0.00   0.00      0      0      0       0      33
 1987 286    74    71   10.0      3   0.83    506     14      0    761    520      0    0.0  0.000      0      0  0.000  0.000  0.022  0.000   3.69   0.00   0.00      0      0    164.4   0.00   0.00   0.48   2.73   4.00   4.00   1.17   0.06   0.00   0.00   0.00   0.00   0.00      0      0      0       0      36
 1987 287    75    72   10.0      3   0.86    528     14      0    806    542      0    0.0  0.000      0      0  0.000  0.000  0.022  0.031   3.60   0.00   0.00      0      0    162.7   0.00   0.00   0.48   2.77   4.00   4.00   1.30   0.09   0.00   0.00   0.00   0.00   0.00      0      0      0       0      40
 1987 288    76    73   11.0      3   0.90    559     14      0    829    573      0    0.0  0.000      0      0  0.000  0.000  0.022  0.155   3.57   0.00   0.00      0      0    161.1   0.00   0.00   0.49   2.76   4.00   4.00   1.36   0.10   0.00   0.00   0.00   0.00   0.00      0      0      0       0      44
 1987 289    77    74   11.0      3   0.95    594     14      0    906    609      0    0.0  0.000      0      0  0.000  0.000  0.022  0.083   3.54   0.00   0.00      0      0    159.4   0.00   0.00   0.50   2.79   4.00   4.00   1.57   0.17   0.00   0.00   0.00   0.00   0.00      0      0      0       0      48
 1987 290    78    75   11.0      3   0.99    630     15      0   1034    645      0    0.0  0.000      0      0  0.000  0.000  0.022  0.016   3.52   0.00   0.00      0      0    157.8   0.00   0.00   0.51   2.87   4.00   4.00   1.91   0.29   0.00   0.00   0.00   0.00   0.00      0      0      0       0      53
 1987 291    79    76   11.0      3   1.04    668     15      0   1172    684      0    0.0  0.000      0      0  0.000  0.000  0.022  0.001   3.50   0.00   0.00      0      0    156.2   0.00   0.00   0.51   2.96   4.00   4.00   2.29   0.45   0.00   0.00   0.00   0.00   0.00      0      0      0       0      58
 1987 292    80    77   11.0      3   1.10    713     17      0   1274    730      0    0.0  0.000      0      0  0.000  0.000  0.022  0.001   3.48   0.00   0.00      0      0    154.4   0.00   0.00   0.52   3.04   4.00   4.00   2.58   0.59   0.00   0.00   0.00   0.00   0.00      0      0      0       0      64
 1987 293    81    78   11.0      3   1.17    768     18      0   1407    786      0    0.0  0.000      0      0  0.000  0.000  0.022  0.000   3.46   0.00   0.00      0      0    152.5   0.00   0.00   0.53   3.15   4.00   4.00   2.95   0.79   0.00   0.00   0.00   0.00   0.00      0      0      0       0      70
 1987 294    82    79   12.0      3   1.27    849     22      0   1513    871      0    0.0  0.000      0      0  0.000  0.000  0.022  0.000   3.43   0.00   0.00      0      0    150.0   0.00   0.00   0.55   3.25   4.00   4.00   3.25   0.98   0.00   0.00   0.00   0.00   0.00      0      0      0       0      77
 1987 295    83    80   12.0      3   1.37    925     27      0   1607    952      0    0.0  0.000      0      0  0.000  0.000  0.022  0.000   3.40   0.00   0.00      0      0    147.9   0.00   0.00   0.56   3.33   4.00   4.00   3.52   1.18   0.00   0.00   0.00   0.00   0.00      0      0      0       0      85
 1987 296    84    81   12.0      3   1.50   1029     37      0   1711   1066      0    0.0  0.000      0      0  0.000  0.000  0.022  0.000   3.36   0.00   0.00      0      0    145.3   0.00   0.00   0.58   3.41   4.00   4.00   3.82   1.42   0.00   0.00   0.00   0.00   0.00      0      0      0       0      93
 1987 297    85    82   13.0      3   1.62   1135     50      0   1790   1184      0    0.0  0.000      0      0  0.000  0.000  0.022  0.000   3.32   0.00   0.00      0      0    142.9   0.00   0.00   0.59   3.46   4.00   4.00   4.00   1.65   0.00   0.00   0.00   0.00   0.00      0      0      0       0     101
 1987 298    86    83   13.0      3   1.73   1230     64      0   1813   1294      0    0.0  0.000      0      0  0.000  0.000  0.022  0.000   3.28   0.00   0.00      0      0    140.8   0.00   0.00   0.61   3.47   4.00   4.00   4.00   1.74   0.00   0.00   0.00   0.00   0.00      0      0      0       0     110
 1987 299    87    84   13.0      3   1.86   1342     85      0   1813   1426      0    0.0  0.000      0      0  0.000  0.000  0.022  0.000   3.25   0.00   0.00      0      0    138.7   0.00   0.00   0.62   3.42   3.96   3.98   3.97   1.74   0.00   0.00   0.00   0.00   0.00      0      0      0       0     119
 1987 300    88    85   14.0      3   1.96   1429    104      0   1824   1532      0    0.0  0.000      0      0  0.000  0.000  0.022  0.000   3.22   0.00   0.00      0      0    137.0   0.00   0.00   0.63   3.38   3.95   4.00   3.97   1.77   0.00   0.00   0.00   0.00   0.00      0      0      0       0     128
 1987 301    89    86   14.0      3   2.06   1520    127      0   1910   1647      0    0.0  0.000      0      0  0.000  0.000  0.022  0.000   3.19   0.00   0.00      0      0    135.4   0.00   0.00   0.65   3.39   4.00   4.00   4.00   2.04   0.04   0.00   0.00   0.00   0.00      0      0      0       0     138
 1987 302    90    87   14.0      3   2.17   1620    157      0   2072   1777      0    0.0  0.000      0      0  0.000  0.000  0.022  0.000   3.15   0.00   0.00      0      0    133.7   0.00   0.00   0.66   3.36   4.00   4.00   4.00   2.57   0.12   0.00   0.00   0.00   0.00      0      0      0       0     147
 1987 303    91    88   15.0      3   2.30   1746    201      0   2211   1947      0    0.0  0.000      0      0  0.000  0.000  0.022  0.001   3.12   0.00   0.00      0      0    131.9   0.00   0.00   0.67   3.34   4.00   4.00   4.00   3.06   0.22   0.00   0.00   0.00   0.00      0      0      0       0     157
 1987 304    92    89   15.0      3   2.44   1876    255      0   2350   2131      0    0.0  0.000      0      0  0.000  0.000  0.022  0.002   3.08   0.00   0.00      0      0    130.1   0.00   0.00   0.69   3.33   4.00   4.00   4.00   3.58   0.36   0.00   0.00   0.00   0.00      0      0      0       0     169
 1987 305    93    90   15.0      3   2.57   1996    312      0   2383   2308      0    0.0  0.000      0      0  0.000  0.000  0.022  0.002   3.04   0.00   0.00      0      0    128.6   0.00   0.00   0.71   3.30   4.00   4.00   4.00   3.73   0.41   0.00   0.00   0.00   0.00      0      0      0       0     180
 1987 306    94    91   16.0      3   2.70   2128    385      0   2387   2513      0    0.0  0.000      0      0  0.000  0.000  0.022  0.001   3.00   0.00   0.00      0      0    127.0   0.00   0.00   0.72   3.28   3.98   4.00   4.00   3.76   0.43   0.00   0.00   0.00   0.00      0      0      0       0     192
 1987 307    95    92   16.0      3   2.82   2246    457      0   2403   2704      0    0.0  0.000      0      0  0.000  0.000  0.022  0.000   2.97   0.00   0.00      0      0    125.6   0.00   0.00   0.74   3.27   3.98   4.00   4.00   3.85   0.47   0.00   0.00   0.00   0.00      0      0      0       0     204
 1987 308    96    93   16.0      3   2.90   2329    514      0   2398   2843      0    0.0  0.000      0      0  0.000  0.000  0.022  0.000   2.94   0.00   0.00      0      0    124.6   0.00   0.00   0.75   3.25   3.96   3.99   4.00   3.86   0.49   0.00   0.00   0.00   0.00      0      0      0       0     216
 1987 309    97    94   17.0      3   2.98   2411    576      0   2394   2987      0    0.0  0.000      0      0  0.000  0.000  0.022  0.000   2.91   0.00   0.00      0      0    123.6   0.00   0.00   0.76   3.24   3.95   3.97   4.00   3.88   0.50   0.00   0.00   0.00   0.00      0      0      0       0     228
 1987 310    98    95   17.0      3   3.08   2511    656      0   2402   3167      0    0.0  0.000      0      0  0.000  0.000  0.022  0.000   2.88   0.00   0.00      0      0    122.5   0.00   0.00   0.77   3.23   3.93   3.97   4.00   3.94   0.54   0.00   0.00   0.00   0.00      0      0      0       0     240
 1987 311    99    96   17.0      3   3.17   2605    739      0   2581   3344      0    0.0  0.000      0      0  0.000  0.000  0.022  0.006   2.83   0.00   0.00      0      0    121.5   0.00   0.00   0.78   3.27   3.97   4.00   4.00   4.00   1.01   0.00   0.00   0.00   0.00      0      0      0       0     252
 1987 312   100    97   17.0      3   3.25   2695    824      0   2711   3519      0    0.0  0.000      0      0  0.000  0.000  0.022  0.000   2.80   0.00   0.00      0      0    120.6   0.00   0.00   0.80   3.30   4.00   4.00   4.00   4.00   1.39   0.00   0.00   0.00   0.00      0      0      0       0     265
 1987 313   101    98   17.0      3   3.30   2753    881      0   2921   3633      0    0.0  0.000      0      0  0.000  0.000  0.022  0.000   2.78   0.00   0.00      0      0    119.9   0.00   0.00   0.80   3.38   4.00   4.00   4.00   4.00   2.04   0.00   0.00   0.00   0.00      0      0      0       0     279
 1987 314   102    99   18.0      3   3.37   2830    960      0   3107   3790      0    0.0  0.000      0      0  0.000  0.000  0.022  0.000   2.72   0.00   0.00      0      0    119.1   0.00   0.00   0.81   3.48   4.00   4.00   4.00   4.00   2.66   0.00   0.00   0.00   0.00      0      0      0       0     293
 1987 315   103   100   18.0      3   3.47   2939   1081      0   3251   4020      0    0.0  0.000      0      0  0.000  0.000  0.022  0.000   2.61   0.00   0.00      0      0    118.1   0.00   0.00   0.82   3.58   4.00   4.00   4.00   4.00   3.20   0.00   0.00   0.00   0.00      0      0      0       0     309
 1987 316   104   101   18.0      3   3.59   3063   1230      0   3313   4293      0    0.0  0.000      0      0  0.000  0.000  0.022  0.000   2.50   0.00   0.00      0      0    117.1   0.00   0.00   0.84   3.64   4.00   4.00   4.00   4.00   3.47   0.00   0.00   0.00   0.00      0      0      0       0     325
 1987 317   105   102   19.0      3   3.90   3387   1336      0   3321   4724      0    0.0  0.000      0      0  0.000  0.000  0.023  0.000   2.31   0.00   0.00      0      0    115.0   0.00   0.00   0.85   3.65   4.00   4.00   3.99   4.00   3.55   0.00   0.00   0.00   0.00      0      0      0       0     342
 1987 318   106   103   19.0      3   4.09   3599   1548      0   3328   5147      0    0.0  0.000      0      0  0.000  0.000  0.027  0.000   2.15   0.00   0.00      0      0    113.6   0.00   0.00   0.87   3.57   3.91   3.91   3.89   3.90   3.54   0.00   0.00   0.00   0.00      0      0      0       0     358
 1987 319   107   104   19.0      3   4.22   3750   1748      0   3380   5498      0    0.0  0.000      0      0  0.000  0.000  0.036  0.000   2.03   0.00   0.00      0      0    112.4   0.00   0.00   0.88   3.66   3.99   3.99   3.90   3.91   3.77   0.00   0.00   0.00   0.00      0      0      0       0     375
 1987 320   108   105   20.0      3   4.27   3833   1876      0   3547   5709      0    0.0  0.000      0      0  0.000  0.000  0.046  0.236   1.97   0.00   0.00      0      0    111.4   0.00   0.00   0.90   4.00   4.00   4.00   4.00   4.00   4.00   0.00   0.00   0.00   0.00      0      0      0       0     392
 1987 321   109   106   20.0      3   4.34   3937   2057      0   3676   5994      0    0.0  0.000      0      0  0.000  0.000  0.054  0.081   1.90   0.00   0.00      0      0    110.3   0.00   0.00   0.91   4.00   4.00   4.00   4.00   4.00   4.00   0.00   0.00   0.00   0.00      0      0      0       0     409
 1987 322   110   107   20.0      3   4.39   4017   2212      0   3671   6228      0    0.0  0.000      0      0  0.000  0.000  0.058  0.045   1.85   0.00   0.00      0      0    109.2   0.00   0.00   0.92   4.00   4.00   4.00   3.99   3.99   3.99   0.04   0.00   0.00   0.00      0      0      0       0     428
 1987 323   111   108   21.0      3   4.42   4095   2378      0   3666   6473      0    0.0  0.000      0      0  0.000  0.000  0.063  0.195   1.79   0.00   0.00      0      0    108.1   0.00   0.00   0.94   3.78   3.78   3.78   3.76   3.76   3.75   0.08   0.00   0.00   0.00      0      0      0       0     446
 1987 324   112   109   21.0      3   4.44   4153   2509      0   3658   6662      0    0.0  0.000      0      0  0.000  0.000  0.067  0.125   1.75   0.00   0.00      0      0    107.0   0.00   0.00   0.94   3.66   3.66   3.66   3.62   3.62   3.62   0.12   0.00   0.00   0.00      0      0      0       0     464
 1987 325   113   110   21.0      3   4.44   4196   2610      0   3858   6805      0    0.0  0.000      0      0  0.000  0.000  0.072  0.244   1.73   0.00   0.00      0      0    105.9   0.00   0.00   0.95   4.00   4.00   4.00   3.71   3.68   3.65   0.98   0.00   0.00   0.00      0      0      0       0     483
 1987 326   114   111   21.0      3   4.44   4237   2710      0   4057   6947      0    0.0  0.000      0      0  0.000  0.000  0.076  0.085   1.71   0.00   0.00      0      0    104.7   0.00   0.00   0.96   4.00   4.00   4.00   3.86   3.81   3.74   1.84   0.00   0.00   0.00      0      0      0       0     502
 1987 327   115   112   21.0      3   4.44   4281   2823      0   4072   7105      0    0.0  0.000      0      0  0.000  0.000  0.076  0.050   1.69   0.00   0.00      0      0    103.6   0.00   0.00   0.97   4.00   4.00   4.00   3.85   3.81   3.73   1.96   0.00   0.00   0.00      0      0      0       0     522
 1987 328   116   113   22.0      3   4.45   4343   2985      0   4076   7328      0    0.0  0.000      0      0  0.000  0.000  0.076  0.022   1.65   0.00   0.00      0      0    102.5   0.00   0.00   0.98   4.00   4.00   4.00   3.86   3.81   3.73   2.05   0.00   0.00   0.00      0      0      0       0     543
 1987 329   117   114   22.0      3   4.47   4405   3159      0   4109   7565      0    0.0  0.000      0      0  0.000  0.000  0.076  0.035   1.62   0.00   0.00      0      0    101.4   0.00   0.00   0.99   4.00   4.00   4.00   3.89   3.84   3.75   2.25   0.00   0.00   0.00      0      0      0       0     563
 1987 330   118   115   22.0      3   4.47   4461   3313      0   4142   7774      0    0.0  0.000      0      0  0.000  0.000  0.079  0.016   1.58   0.00   0.00      0      0    100.3   0.00   0.00   1.00   4.00   4.00   4.00   3.93   3.87   3.77   2.43   0.00   0.00   0.00      0      0      0       0     584
 1987 331   119   116   22.0      3   4.48   4516   3464      0   4266   7980      0    0.0  0.000      0      0  0.000  0.000  0.083  0.000   1.55   0.00   0.00      0      0     99.2   0.00   0.00   1.01   4.00   4.00   4.00   4.00   4.00   3.87   2.92   0.00   0.00   0.00      0      0      0       0     604
 1987 332   120   117   22.0      3   4.49   4581   3644      0   4404   8225      0    0.0  0.000      0      0  0.000  0.000  0.086  0.000   1.52   0.00   0.00      0      0     98.0   0.00   0.00   1.03   4.00   4.00   4.00   4.00   4.00   3.99   3.40   0.00   0.00   0.00      0      0      0       0     626
 1987 333   121   118   22.0      3   4.51   4661   3864      0   4514   8525      0    0.0  0.000      0      0  0.000  0.000  0.087  0.000   1.48   0.00   0.00      0      0     96.9   0.00   0.00   1.04   4.00   4.00   4.00   4.00   4.00   4.00   3.76   0.00   0.00   0.00      0      0      0       0     648
 1987 334   122   119   22.0      3   4.54   4748   4099      0   4608   8846      0    0.0  0.000      0      0  0.000  0.000  0.090  0.000   1.43   0.00   0.00      0      0     95.7   0.00   0.00   1.06   4.00   4.00   4.00   4.00   4.00   4.00   4.00   0.00   0.00   0.00      0      0      0       0     670
 1987 335   123   120   22.0      4   4.49   4701   3510      0   4695   9134      0    0.0  0.000    923      0  0.000  0.000  0.093  0.000   1.55   0.00   0.10      0    923     95.5   0.00   0.00   1.08   4.00   4.00   4.00   4.00   4.00   4.00   4.00   0.00   0.00   0.00      0      0      0       0     693
 1987 336   124   121   22.0      4   4.44   4650   3592      0   4693   9372      0    0.0  0.000   1129      0  0.000  0.000  0.096  0.000   1.56   0.00   0.12      0   1129     95.4   0.00   0.00   1.10   4.00   4.00   4.00   4.00   4.00   4.00   4.00   0.00   0.00   0.00      0      0      0       0     717
 1987 337   125   122   22.0      4   4.40   4597   3639      0   4676   9481      0    0.0  0.000   1246      0  0.000  0.000  0.071  0.000   1.57   0.00   0.13      0   1246     95.6   0.00   0.00   1.11   4.00   4.00   4.00   3.99   3.99   3.99   3.98   0.01   0.00   0.00      0      0      0       0     740
 1987 338   126   123   22.0      4   4.36   4541   3686      0   4680   9590      0    0.0  0.000   1363      0  0.000  0.000  0.068  0.000   1.58   0.00   0.14      0   1363     96.0   0.00   0.00   1.11   4.00   4.00   4.00   4.00   4.00   3.99   3.98   0.05   0.00   0.00      0      0      0       0     764
 1987 339   127   124   22.0      4   4.32   4483   3741      0   4851   9724      0    0.0  0.000   1501      0  0.000  0.000  0.064  0.000   1.59   0.00   0.15      0   1501     96.5   0.00   0.00   1.12   4.00   4.00   4.00   4.00   4.00   4.00   4.00   0.42   0.00   0.00      0      0      0       0     787
 1987 340   128   125   22.0      4   4.29   4422   3805      0   5000   9887      0    0.0  0.000   1661      0  0.000  0.000  0.060  0.143   1.59   0.00   0.17      0   1661     97.1   0.00   0.00   1.13   4.00   4.00   4.00   4.00   4.00   4.00   4.00   0.76   0.00   0.00      0      0      0       0     811
 1987 341   129   126   22.0      4   4.26   4358   3861      0   4983  10021      0    0.0  0.000   1802      0  0.000  0.000  0.056  0.075   1.60   0.00   0.18      0   1802     97.8   0.00   0.00   1.14   4.00   4.00   4.00   3.99   3.99   3.99   3.98   0.78   0.00   0.00      0      0      0       0     836
 1987 342   130   127   22.0      4   4.23   4292   3923      0   5097  10170      0    0.0  0.000   1956      0  0.000  0.000  0.052  0.083   1.61   0.00   0.19      0   1956     98.7   0.00   0.00   1.14   4.00   4.00   4.00   4.00   4.00   4.00   4.00   1.08   0.00   0.00      0      0      0       0     861
 1987 343   131   128   22.0      4   4.21   4223   3983      0   5248  10312      0    0.0  0.000   2106      0  0.000  0.000  0.049  0.036   1.62   0.00   0.20      0   2106     99.7   0.00   0.00   1.15   4.00   4.00   4.00   4.00   4.00   4.00   4.00   1.47   0.00   0.00      0      0      0       0     887
 1987 344   132   129   22.0      4   4.18   4151   4060      0   5391  10510      0    0.0  0.000   2299      0  0.000  0.000  0.045  0.007   1.63   0.00   0.22      0   2299    100.8   0.00   0.00   1.16   4.00   4.00   4.00   4.00   4.00   4.00   4.00   1.86   0.00   0.00      0      0      0       0     913
 1987 345   133   130   22.0      4   4.16   4075   4137      0   5427  10702      0    0.0  0.000   2490      0  0.000  0.000  0.041  0.000   1.64   0.00   0.23      0   2490    102.1   0.00   0.00   1.17   4.00   4.00   4.00   4.00   4.00   4.00   4.00   2.00   0.00   0.00      0      0      0       0     940
 1987 346   134   131   22.0      4   4.14   3998   4195      0   5599  10828      0    0.0  0.000   2636      0  0.000  0.000  0.039  0.000   1.65   0.00   0.24      0   2636    103.6   0.00   0.00   1.18   4.00   4.00   4.00   4.00   4.00   4.00   4.00   2.45   0.00   0.00      0      0      0       0     967
 1987 347   135   132   22.0      4   4.12   3918   4254      0   5775  10956      0    0.0  0.000   2784      0  0.000  0.000  0.036  0.000   1.66   0.00   0.25      0   2784    105.3   0.00   0.00   1.19   4.00   4.00   4.00   4.00   4.00   4.00   4.00   2.90   0.00   0.00      0      0      0       0     995
 1987 348   136   133   22.0      4   4.11   3835   4324      0   5790  11118      0    0.0  0.000   2959      0  0.000  0.000  0.033  0.000   1.67   0.00   0.27      0   2959    107.1   0.00   0.00   1.19   4.00   4.00   4.00   4.00   4.00   4.00   4.00   2.98   0.00   0.00      0      0      0       0    1024
 1987 349   137   134   22.0      5   4.09   3835   4324    279   5808  11397   3726    7.5  0.025   3238      7  0.000  0.000  0.035  0.000   1.62   8.63   0.28      0   3238    106.6   0.00   0.00   1.20   4.00   4.00   4.00   4.00   4.00   4.00   4.00   3.07   0.00   0.00      0      0      0       0    1053
 1987 350   138   135   22.0      5   4.06   3835   4265    542   5779  11601   3726   14.5  0.047   3501      7  0.000  0.000  0.047  0.000   1.58  15.48   0.30      0   3501    106.0   0.00   0.00   1.20   4.00   4.00   4.00   4.00   4.00   4.00   4.00   3.07   0.00   0.00      0      0      0       0    1082
 1987 351   139   136   22.0      5   4.04   3835   4324    755   5835  11873   3726   20.3  0.064   3714      7  0.000  0.000  0.054  0.000   1.54  20.34   0.31      0   3714    105.3   0.00   0.00   1.21   4.00   4.00   4.00   4.00   4.00   4.00   4.00   3.21   0.00   0.00      0      0      0       0    1111
 1987 352   140   137   22.0      5   4.01   3835   4324    942   5877  12059   3726   25.3  0.078   3900      7  0.000  0.000  0.056  0.135   1.51  24.15   0.32      0   3900    104.5   0.00   0.00   1.22   4.00   4.00   4.00   4.00   4.00   4.00   4.00   3.30   0.00   0.00      0      0      0       0    1140
 1987 353   141   138   22.0      5   3.98   3835   4324   1134   5938  12251   3726   30.4  0.093   4092      7  0.000  0.000  0.064  0.037   1.48  27.71   0.33      0   4092    103.7   0.00   0.00   1.23   4.00   4.00   4.00   4.00   4.00   4.00   4.00   3.41   0.00   0.00      0      0      0       0    1169
 1987 354   142   139   22.0      5   3.94   3835   4324   1354   5970  12472   3726   36.3  0.109   4313      7  0.000  0.000  0.067  0.004   1.44  31.40   0.35      0   4313    102.8   0.00   0.00   1.24   4.00   4.00   4.00   4.00   4.00   4.00   4.00   3.46   0.00   0.00      0      0      0       0    1199
 1987 355   143   140   22.0      5   3.91   3835   4324   1530   6046  12648   3726   41.1  0.121   4489      7  0.000  0.000  0.072  0.000   1.42  34.09   0.35      0   4489    101.9   0.00   0.00   1.24   4.00   4.00   4.00   4.00   4.00   4.00   4.00   3.54   0.00   0.00      0      0      0       0    1229
 1987 356   144   141   22.0      5   3.87   3835   4324   1711   6080  12828   3726   45.9  0.133   4670      7  0.000  0.000  0.075  0.000   1.39  36.64   0.36      0   4670    100.9   0.00   0.00   1.25   4.00   4.00   4.00   4.00   4.00   4.00   4.00   3.57   0.00   0.00      0      0      0       0    1259
 1987 357   145   142   22.0      5   3.83   3835   4324   1913   6119  13031   3726   51.3  0.147   4872      7  0.000  0.000  0.078  0.000   1.36  39.27   0.37      0   4872    100.0   0.00   0.00   1.25   4.00   4.00   4.00   4.00   4.00   4.00   4.00   3.58   0.00   0.00      0      0      0       0    1290
 1987 358   146   143   22.0      5   3.79   3835   4324   2137   6179  13254   3726   57.3  0.161   5096      7  0.000  0.000  0.082  0.000   1.33  41.94   0.38      0   5096     98.9   0.00   0.00   1.25   4.00   4.00   4.00   4.00   4.00   4.00   4.00   3.60   0.00   0.00      0      0      0       0    1320
 1987 359   147   144   22.0      5   3.75   3835   4276   2365   6148  13435   3726   63.5  0.176   5324      7  0.000  0.000  0.088  0.000   1.30  44.43   0.40      0   5324     97.8   0.00   0.00   1.25   4.00   4.00   4.00   4.00   4.00   4.00   4.00   3.60   0.00   0.00      0      0      0       0    1351
 1987 360   148   145   22.0      5   3.71   3835   4264   2645   6117  13702   3726   71.0  0.193   5603      7  0.000  0.000  0.093  0.000   1.26  47.20   0.41      0   5603     96.7   0.00   0.00   1.25   4.00   4.00   4.00   4.00   4.00   4.00   4.00   3.60   0.00   0.00      0      0      0       0    1382
 1987 361   149   146   22.0      5   3.66   3835   4324   2924   6120  14042   3726   78.5  0.208   5883      7  0.000  0.000  0.097  0.000   1.21  49.71   0.42      0   5883     95.5   0.00   0.00   1.25   4.00   4.00   4.00   4.00   4.00   4.00   4.00   3.60   0.00   0.00      0      0      0       0    1412
 1987 362   150   147   22.0      5   3.62   3835   4324   3204   6104  14321   3726   86.0  0.224   6162      7  0.000  0.000  0.104  0.000   1.17  51.99   0.43      0   6162     94.3   0.00   0.00   1.25   4.00   4.00   4.00   4.00   4.00   3.99   3.99   3.58   0.00   0.00      0      0      0       0    1443
 1987 363   151   148   22.0      5   3.56   3835   4221   3467   6073  14482   3726   93.0  0.239   6426      7  0.000  0.000  0.118  0.195   1.15  53.96   0.44      0   6426     92.9   0.00   0.00   1.25   4.00   4.00   4.00   4.00   4.00   3.99   3.99   3.58   0.00   0.00      0      0      0       0    1473
 1987 364   152   149   22.0      5   3.51   3835   4194   3747   6043  14734   3726  100.5  0.254   6705      7  0.000  0.000  0.126  0.213   1.11  55.88   0.46      0   6705     91.4   0.00   0.00   1.25   4.00   4.00   4.00   4.00   4.00   3.99   3.99   3.58   0.00   0.00      0      0      0       0    1504
 1987 365   153   150   22.0      5   3.45   3835   4266   4026   6049  15086   3726  108.0  0.267   6985      7  0.000  0.000  0.129  0.261   1.06  57.64   0.46      0   6985     90.0   0.00   0.00   1.25   4.00   4.00   4.00   4.00   4.00   4.00   4.00   3.58   0.00   0.00      0      0      0       0    1534
 1988 001   154   151   22.0      5   3.39   3835   4324   4306   6077  15423   3726  115.5  0.279   7264      7  0.000  0.000  0.137  0.126   1.02  59.27   0.47      0   7264     88.4   0.00   0.00   1.25   4.00   4.00   4.00   4.00   4.00   4.00   4.00   3.58   0.00   0.00      0      0      0       0    1564
 1988 002   155   152   22.0      5   3.33   3835   4324   4585   6107  15703   3726  123.0  0.292   7544      7  0.000  0.000  0.150  0.041   0.99  60.78   0.48      0   7544     86.8   0.00   0.00   1.25   4.00   4.00   4.00   4.00   4.00   4.00   4.00   3.59   0.00   0.00      0      0      0       0    1595
 1988 003   156   153   22.0      5   3.26   3835   4324   4865   6126  15982   3726  130.5  0.304   7823      7  0.000  0.000  0.160  0.010   0.95  62.18   0.49      0   7823     85.0   0.00   0.00   1.25   4.00   4.00   4.00   4.00   4.00   4.00   4.00   3.59   0.00   0.00      0      0      0       0    1625
 1988 004   157   154   22.0      5   3.19   3835   4324   5144   6154  16262   3726  138.0  0.316   8103      7  0.000  0.000  0.168  0.000   0.92  63.49   0.50      0   8103     83.2   0.00   0.00   1.25   4.00   4.00   4.00   4.00   4.00   4.00   4.00   3.60   0.00   0.00      0      0      0       0    1656
 1988 005   158   155   22.0      5   3.12   3835   4324   5424   6124  16541   3726  145.5  0.328   8382      7  0.000  0.000  0.176  0.000   0.89  64.70   0.51      0   8382     81.4   0.00   0.00   1.25   3.98   3.98   3.98   3.98   3.98   3.98   3.98   3.58   0.00   0.00      0      0      0       0    1687
 1988 006   159   156   22.0      5   3.05   3835   4324   5586   6178  16704   3726  149.9  0.334   8545      7  0.000  0.000  0.187  0.000   0.88  65.37   0.51      0   8545     79.5   0.00   0.00   1.25   4.00   4.00   4.00   4.00   4.00   4.00   4.00   3.59   0.00   0.00      0      0      0       0    1717
 1988 007   160   157   22.0      5   2.98   3835   4324   5783   6221  16900   3726  155.2  0.342   8741      7  0.000  0.000  0.191  0.068   0.86  66.15   0.52      0   8741     77.6   0.00   0.00   1.25   4.00   4.00   4.00   4.00   4.00   4.00   4.00   3.60   0.00   0.00      0      0      0       0    1748
 1988 008   161   158   22.0      5   2.90   3835   4324   6043   6236  17160   3726  162.2  0.352   9001      7  0.000  0.000  0.196  0.016   0.83  67.13   0.52      0   9001     75.7   0.00   0.00   1.25   4.00   4.00   4.00   4.00   4.00   4.00   4.00   3.60   0.00   0.00      0      0      0       0    1779
 1988 009   162   159   22.0      5   2.83   3835   4324   6322   6255  17440   3726  169.7  0.363   9281      7  0.000  0.000  0.208  0.000   0.80  68.12   0.53      0   9281     73.8   0.00   0.00   1.25   4.00   4.00   4.00   4.00   4.00   4.00   4.00   3.61   0.00   0.00      0      0      0       0    1810
 1988 010   163   160   22.0      5   2.75   3835   4324   6602   6250  17719   3726  177.2  0.373   9560      7  0.000  0.000  0.232  0.000   0.78  69.05   0.54      0   9560     71.8   0.00   0.00   1.25   4.00   4.00   4.00   4.00   4.00   4.00   4.00   3.60   0.00   0.00      0      0      0       0    1842
 1988 011   164   161   22.0      5   2.68   3835   4324   6881   6229  17999   3726  184.7  0.382   9840      7  0.000  0.000  0.256  0.000   0.75  69.93   0.55      0   9840     69.9   0.00   0.00   1.25   4.00   4.00   4.00   3.99   3.99   3.99   3.99   3.58   0.00   0.00      0      0      0       0    1873
 1988 012   165   162   22.0      5   2.60   3835   4324   7161   6224  18278   3726  192.2  0.392  10119      7  0.000  0.000  0.283  0.000   0.73  70.76   0.55      0  10119     67.9   0.00   0.00   1.25   4.00   4.00   4.00   4.00   4.00   4.00   3.99   3.58   0.00   0.00      0      0      0       0    1904
 1988 013   166   163   22.0      5   2.53   3835   4216   7428   6193  18438   3726  199.3  0.403  10386      7  0.000  0.000  0.315  0.000   0.71  71.51   0.56      0  10386     65.9   0.00   0.00   1.25   4.00   4.00   4.00   4.00   4.00   4.00   3.99   3.58   0.00   0.00      0      0      0       0    1935
 1988 014   167   164   22.0      5   2.45   3835   4236   7707   6172  18737   3726  206.8  0.411  10666      7  0.000  0.000  0.344  0.000   0.68  72.26   0.57      0  10666     63.8   0.00   0.00   1.25   4.00   4.00   4.00   3.99   3.99   3.99   3.97   3.56   0.00   0.00      0      0      0       0    1966
 1988 015   168   165   22.0      5   2.37   3835   4246   7987   6146  19026   3726  214.3  0.420  10945      7  0.000  0.000  0.359  0.020   0.66  72.97   0.58      0  10945     61.8   0.00   0.00   1.25   4.00   4.00   4.00   3.98   3.98   3.97   3.96   3.55   0.00   0.00      0      0      0       0    1997
 1988 016   169   166   22.0      5   2.29   3835   4199   8266   6115  19259   3726  221.8  0.429  11225      7  0.000  0.000  0.391  0.005   0.65  73.64   0.58      0  11225     59.8   0.00   0.00   1.25   4.00   4.00   4.00   3.98   3.98   3.97   3.96   3.55   0.00   0.00      0      0      0       0    2028
 1988 017   170   167   22.0      5   2.21   3835   4195   8546   6085  19534   3726  229.3  0.437  11504      7  0.000  0.000  0.417  0.000   0.63  74.28   0.59      0  11504     57.7   0.00   0.00   1.25   4.00   4.00   4.00   3.98   3.98   3.97   3.96   3.55   0.00   0.00      0      0      0       0    2058
 1988 018   171   168   22.0      5   2.14   3835   4004   8825   6054  19623   3726  236.8  0.450  11784      7  0.000  0.000  0.439  0.000   0.62  74.89   0.60      0  11784     55.7   0.00   0.00   1.25   4.00   4.00   4.00   3.98   3.98   3.97   3.96   3.55   0.00   0.00      0      0      0       0    2089
 1988 019   172   169   22.0      5   2.06   3835   3841   9072   6024  19706   3726  243.4  0.460  12030      7  0.000  0.000  0.472  0.000   0.61  75.41   0.61      0  12030     53.7   0.00   0.00   1.25   4.00   4.00   4.00   3.98   3.98   3.97   3.96   3.55   0.00   0.00      0      0      0       0    2119
 1988 020   173   170   22.0      5   1.98   3835   3671   9333   5994  19798   3726  250.5  0.471  12292      7  0.000  0.000  0.475  0.427   0.61  75.93   0.62      0  12292     51.7   0.00   0.00   1.25   4.00   4.00   4.00   3.98   3.98   3.97   3.96   3.55   0.00   0.00      0      0      0       0    2149
 1988 021   174   171   22.0      5   1.91   3835   3548   9583   5964  19925   3726  257.2  0.481  12542      7  0.000  0.000  0.487  0.675   0.59  76.41   0.63      0  12542     49.8   0.00   0.00   1.25   4.00   4.00   4.00   3.98   3.98   3.97   3.96   3.55   0.00   0.00      0      0      0       0    2179
 1988 022   175   172   22.0      5   1.91   3835   3548   9583   5964  19925   3726  257.2  0.481  12542      7  0.000  0.000  0.487  0.675   0.59  76.41   0.63      0  12542     49.8   0.00   0.00   1.25   4.00   4.00   4.00   3.98   3.98   3.97   3.96   3.55   0.00   0.00      0      0      0       0    2179
 1988 023   176   173   22.0      5   1.91   3835   3548   9583   5964  19925   3726  257.2  0.481  12542      7  0.000  0.000  0.487  0.675   0.59  76.41   0.63      0  12542     49.8   0.00   0.00   1.25   4.00   4.00   4.00   3.98   3.98   3.97   3.96   3.55   0.00   0.00      0      0      0       0    2179
 1988 024   177   174   22.0      5   1.91   3835   3548   9583   5964  19925   3726  257.2  0.481  12542      7  0.000  0.000  0.487  0.675   0.59  76.41   0.63      0  12542     49.8   0.00   0.00   1.25   4.00   4.00   4.00   3.98   3.98   3.97   3.96   3.55   0.00   0.00      0      0      0       0    2179
 1988 025   178   175   22.0      5   1.91   3835   3548   9583   5964  19925   3726  257.2  0.481  12542      7  0.000  0.000  0.487  0.675   0.59  76.41   0.63      0  12542     49.8   0.00   0.00   1.25   4.00   4.00   4.00   3.98   3.98   3.97   3.96   3.55   0.00   0.00      0      0      0       0    2179

*DSSAT Cropping System Model Ver. 4.0.2.000               Aug 03, 2016; 15:38:57

*RUN   2        : UYMZ                    
 MODEL          : MZCER040 - Maize           
 EXPERIMENT     : UYMZ0133 MZ    late to create DSS                             
 TREATMENT  1   : UYMZ                    

@YEAR DOY   DAS   DAP   L#SD   GSTD   LAID   LWAD   SWAD   GWAD   RWAD   CWAD   G#AD   GWGD   HIAD   PWAD   P#AD   WSPD   WSGD   NSTD   EWSD   LN%D   SH%D   HIPD   PWDD   PWTD     SLAD   CHTD   CWID   RDPD   RL1D   RL2D   RL3D   RL4D   RL5D   RL6D   RL7D   RL8D   RL9D   RL10   CDAD   LDAD   SDAD   SNW0C   SNW1C
 1988 215     3     0    0.0      0   0.00      0      0      0      0      0      0    0.0  0.000      0      0  0.000  0.000  0.000  0.000   0.00   0.00   0.00      0      0      0.0   0.00   0.00   0.03   0.00   0.00   0.00   0.00   0.00   0.00   0.00   0.00   0.00   0.00      0      0      0       0       0
 1988 216     4     1    0.0      0   0.00      0      0      0      0      0      0    0.0  0.000      0      0  0.000  0.000  0.000  0.000   0.00   0.00   0.00      0      0      0.0   0.00   0.00   0.03   0.00   0.00   0.00   0.00   0.00   0.00   0.00   0.00   0.00   0.00      0      0      0       0       0
 1988 217     5     2    0.0      0   0.00      0      0      0      0      0      0    0.0  0.000      0      0  0.000  0.000  0.000  0.000   0.00   0.00   0.00      0      0      0.0   0.00   0.00   0.03   0.00   0.00   0.00   0.00   0.00   0.00   0.00   0.00   0.00   0.00      0      0      0       0       0
 1988 218     6     3    0.0      0   0.00      0      0      0      0      0      0    0.0  0.000      0      0  0.000  0.000  0.000  0.000   0.00   0.00   0.00      0      0      0.0   0.00   0.00   0.04   0.00   0.00   0.00   0.00   0.00   0.00   0.00   0.00   0.00   0.00      0      0      0       0       0
 1988 219     7     4    0.0      0   0.00      0      0      0      0      0      0    0.0  0.000      0      0  0.000  0.000  0.000  0.000   0.00   0.00   0.00      0      0      0.0   0.00   0.00   0.05   0.00   0.00   0.00   0.00   0.00   0.00   0.00   0.00   0.00   0.00      0      0      0       0       0
 1988 220     8     5    0.0      0   0.00      0      0      0      0      0      0    0.0  0.000      0      0  0.000  0.000  0.000  0.000   0.00   0.00   0.00      0      0      0.0   0.00   0.00   0.06   0.00   0.00   0.00   0.00   0.00   0.00   0.00   0.00   0.00   0.00      0      0      0       0       0
 1988 221     9     6    0.0      0   0.00      0      0      0      0      0      0    0.0  0.000      0      0  0.000  0.000  0.000  0.000   0.00   0.00   0.00      0      0      0.0   0.00   0.00   0.06   0.00   0.00   0.00   0.00   0.00   0.00   0.00   0.00   0.00   0.00      0      0      0       0       0
 1988 222    10     7    0.0      0   0.00      0      0      0      0      0      0    0.0  0.000      0      0  0.000  0.000  0.000  0.000   0.00   0.00   0.00      0      0      0.0   0.00   0.00   0.06   0.00   0.00   0.00   0.00   0.00   0.00   0.00   0.00   0.00   0.00      0      0      0       0       0
 1988 223    11     8    0.0      0   0.00      0      0      0      0      0      0    0.0  0.000      0      0  0.000  0.000  0.000  0.000   0.00   0.00   0.00      0      0      0.0   0.00   0.00   0.06   0.00   0.00   0.00   0.00   0.00   0.00   0.00   0.00   0.00   0.00      0      0      0       0       0
 1988 224    12     9    0.0      0   0.00      0      0      0      0      0      0    0.0  0.000      0      0  0.000  0.000  0.000  0.000   0.00   0.00   0.00      0      0      0.0   0.00   0.00   0.07   0.00   0.00   0.00   0.00   0.00   0.00   0.00   0.00   0.00   0.00      0      0      0       0       0
 1988 225    13    10    0.0      0   0.00      0      0      0      0      0      0    0.0  0.000      0      0  0.000  0.000  0.000  0.000   0.00   0.00   0.00      0      0      0.0   0.00   0.00   0.08   0.00   0.00   0.00   0.00   0.00   0.00   0.00   0.00   0.00   0.00      0      0      0       0       0
 1988 226    14    11    0.0      0   0.00      0      0      0      0      0      0    0.0  0.000      0      0  0.000  0.000  0.000  0.000   0.00   0.00   0.00      0      0      0.0   0.00   0.00   0.09   0.00   0.00   0.00   0.00   0.00   0.00   0.00   0.00   0.00   0.00      0      0      0       0       0
 1988 227    15    12    0.0      0   0.00      0      0      0      0      0      0    0.0  0.000      0      0  0.000  0.000  0.000  0.000   0.00   0.00   0.00      0      0      0.0   0.00   0.00   0.10   0.00   0.00   0.00   0.00   0.00   0.00   0.00   0.00   0.00   0.00      0      0      0       0       0
 1988 228    16    13    0.0      0   0.00      0      0      0      0      0      0    0.0  0.000      0      0  0.000  0.000  0.000  0.000   0.00   0.00   0.00      0      0      0.0   0.00   0.00   0.11   0.00   0.00   0.00   0.00   0.00   0.00   0.00   0.00   0.00   0.00      0      0      0       0       0
 1988 229    17    14    1.0      1   0.00     14     14      0     14     28      0    0.0  0.000      0      0  0.000  0.000  0.012  0.000   4.40   0.00   0.00      0      0     10.8   0.00   0.00   0.12   0.28   0.09   0.00   0.00   0.00   0.00   0.00   0.00   0.00   0.00      0      0      0       0       0
 1988 230    18    15    1.0      1   0.00     14     14      0     14     28      0    0.0  0.000      0      0  0.000  0.000  0.019  0.000   4.55   0.00   0.00      0      0     15.6   0.00   0.00   0.12   0.28   0.09   0.00   0.00   0.00   0.00   0.00   0.00   0.00   0.00      0      0      0       0       0
 1988 231    19    16    2.0      1   0.00     14     14      0     14     28      0    0.0  0.000      0      0  0.000  0.000  0.000  0.000   4.55   0.00   0.00      0      0     29.2   0.00   0.00   0.13   0.28   0.09   0.00   0.00   0.00   0.00   0.00   0.00   0.00   0.00      0      0      0       0       0
 1988 232    20    17    2.0      1   0.01     14     14      0     15     28      0    0.0  0.000      0      0  0.000  0.000  0.000  0.000   4.55   0.00   0.00      0      0     51.7   0.00   0.00   0.14   0.28   0.09   0.00   0.00   0.00   0.00   0.00   0.00   0.00   0.00      0      0      0       0       0
 1988 233    21    18    2.0      1   0.01     14     14      0     15     28      0    0.0  0.000      0      0  0.000  0.000  0.000  0.000   4.55   0.00   0.00      0      0     66.5   0.00   0.00   0.15   0.27   0.10   0.00   0.00   0.00   0.00   0.00   0.00   0.00   0.00      0      0      0       0       0
 1988 234    22    19    3.0      1   0.01     14     14      0     17     28      0    0.0  0.000      0      0  0.000  0.000  0.000  0.000   4.46   0.00   0.00      0      0     79.3   0.00   0.00   0.16   0.28   0.11   0.00   0.00   0.00   0.00   0.00   0.00   0.00   0.00      0      0      0       0       0
 1988 235    23    20    3.0      1   0.01     14     14      0     18     28      0    0.0  0.000      0      0  0.000  0.000  0.000  0.001   4.44   0.00   0.00      0      0     93.6   0.00   0.00   0.16   0.29   0.13   0.00   0.00   0.00   0.00   0.00   0.00   0.00   0.00      0      0      0       0       0
 1988 236    24    21    3.0      1   0.02     14     14      0     20     28      0    0.0  0.000      0      0  0.000  0.000  0.000  0.001   4.41   0.00   0.00      0      0    129.1   0.00   0.00   0.18   0.30   0.15   0.01   0.00   0.00   0.00   0.00   0.00   0.00   0.00      0      0      0       0       0
 1988 237    25    22    4.0      1   0.03     14     14      0     22     28      0    0.0  0.000      0      0  0.000  0.000  0.000  0.000   4.38   0.00   0.00      0      0    201.7   0.00   0.00   0.19   0.33   0.17   0.01   0.00   0.00   0.00   0.00   0.00   0.00   0.00      0      0      0       0       0
 1988 238    26    23    4.0      1   0.03     14     14      0     25     28      0    0.0  0.000      0      0  0.000  0.000  0.000  0.000   4.37   0.00   0.00      0      0    231.2   0.00   0.00   0.19   0.37   0.20   0.02   0.00   0.00   0.00   0.00   0.00   0.00   0.00      0      0      0       0       0
 1988 239    27    24    4.0      1   0.02     14     14      0     27     28      0    0.0  0.000      0      0  0.000  0.000  0.000  0.000   4.37   0.00   0.00      0      0    142.1   0.00   0.00   0.19   0.38   0.21   0.03   0.00   0.00   0.00   0.00   0.00   0.00   0.00      0      0      0       0       1
 1988 240    28    25    4.0      1   0.01     14     14      0     28     28      0    0.0  0.000      0      0  0.000  0.000  0.000  0.000   4.37   0.00   0.00      0      0     54.9   0.00   0.00   0.19   0.39   0.22   0.03   0.00   0.00   0.00   0.00   0.00   0.00   0.00      0      0      0       0       1
 1988 241    29    26    4.0      1   0.01     14     14      0     28     28      0    0.0  0.000      0      0  0.000  0.000  0.000  0.000   4.37   0.00   0.00      0      0     43.7   0.00   0.00   0.20   0.39   0.22   0.03   0.00   0.00   0.00   0.00   0.00   0.00   0.00      0      0      0       0       1
 1988 242    30    27    4.0      1   0.02     14     14      0     29     28      0    0.0  0.000      0      0  0.000  0.000  0.000  0.000   4.37   0.00   0.00      0      0    122.3   0.00   0.00   0.20   0.40   0.23   0.03   0.00   0.00   0.00   0.00   0.00   0.00   0.00      0      0      0       0       1
 1988 243    31    28    4.0      1   0.03     17     14      0     30     31      0    0.0  0.000      0      0  0.000  0.000  0.000  0.000   3.97   0.00   0.00      0      0    150.6   0.00   0.00   0.21   0.41   0.23   0.04   0.00   0.00   0.00   0.00   0.00   0.00   0.00      0      0      0       0       1
 1988 244    32    29    4.0      1   0.03     20     14      0     32     34      0    0.0  0.000      0      0  0.000  0.000  0.000  0.000   3.89   0.00   0.00      0      0    167.7   0.00   0.00   0.22   0.43   0.25   0.04   0.00   0.00   0.00   0.00   0.00   0.00   0.00      0      0      0       0       1
 1988 245    33    30    4.0      1   0.03     21     14      0     34     35      0    0.0  0.000      0      0  0.000  0.000  0.000  0.000   4.17   0.00   0.00      0      0    159.8   0.00   0.00   0.22   0.46   0.27   0.05   0.00   0.00   0.00   0.00   0.00   0.00   0.00      0      0      0       0       1
 1988 246    34    31    4.0      1   0.02     22     14      0     35     36      0    0.0  0.000      0      0  0.000  0.000  0.000  0.000   4.25   0.00   0.00      0      0     80.2   0.00   0.00   0.22   0.47   0.28   0.06   0.00   0.00   0.00   0.00   0.00   0.00   0.00      0      0      0       0       1
 1988 247    35    32    5.0      1   0.01     23     14      0     36     37      0    0.0  0.000      0      0  0.000  0.000  0.000  0.000   4.13   0.00   0.00      0      0     55.5   0.00   0.00   0.22   0.47   0.28   0.06   0.00   0.00   0.00   0.00   0.00   0.00   0.00      0      0      0       0       1
 1988 248    36    33    5.0      1   0.01     25     14      0     36     39      0    0.0  0.000      0      0  0.000  0.000  0.005  0.000   3.86   0.00   0.00      0      0     53.2   0.00   0.00   0.23   0.47   0.28   0.06   0.00   0.00   0.00   0.00   0.00   0.00   0.00      0      0      0       0       1
 1988 249    37    34    5.0      1   0.03     32     14      0     36     46      0    0.0  0.000      0      0  0.000  0.000  0.018  0.000   3.69   0.00   0.00      0      0     89.4   0.00   0.00   0.24   0.47   0.28   0.06   0.00   0.00   0.00   0.00   0.00   0.00   0.00      0      0      0       0       1
 1988 250    38    35    5.0      1   0.04     37     14      0     37     51      0    0.0  0.000      0      0  0.000  0.000  0.000  0.000   3.77   0.00   0.00      0      0    111.6   0.00   0.00   0.24   0.47   0.28   0.07   0.00   0.00   0.00   0.00   0.00   0.00   0.00      0      0      0       0       1
 1988 251    39    36    5.0      1   0.06     44     14      0     37     58      0    0.0  0.000      0      0  0.000  0.000  0.000  0.000   3.72   0.00   0.00      0      0    129.3   0.00   0.00   0.25   0.48   0.29   0.07   0.00   0.00   0.00   0.00   0.00   0.00   0.00      0      0      0       0       2
 1988 252    40    37    6.0      1   0.08     56     14      0     39     70      0    0.0  0.000      0      0  0.000  0.000  0.000  0.000   3.50   0.00   0.00      0      0    147.2   0.00   0.00   0.26   0.49   0.30   0.08   0.00   0.00   0.00   0.00   0.00   0.00   0.00      0      0      0       0       2
 1988 253    41    38    6.0      1   0.09     61     14      0     41     75      0    0.0  0.000      0      0  0.000  0.000  0.000  0.189   3.88   0.00   0.00      0      0    152.7   0.00   0.00   0.27   0.50   0.31   0.09   0.00   0.00   0.00   0.00   0.00   0.00   0.00      0      0      0       0       2
 1988 254    42    39    6.0      1   0.10     64     14      0     42     78      0    0.0  0.000      0      0  0.000  0.000  0.000  0.289   4.05   0.00   0.00      0      0    154.7   0.00   0.00   0.27   0.47   0.30   0.09   0.00   0.00   0.00   0.00   0.00   0.00   0.00      0      0      0       0       2
 1988 255    43    40    6.0      1   0.11     70     14      0     49     84      0    0.0  0.000      0      0  0.000  0.000  0.000  0.281   3.86   0.00   0.00      0      0    158.9   0.00   0.00   0.28   0.50   0.33   0.13   0.00   0.00   0.00   0.00   0.00   0.00   0.00      0      0      0       0       2
 1988 256    44    41    6.0      1   0.13     79     14      0     62     93      0    0.0  0.000      0      0  0.000  0.000  0.000  0.073   3.73   0.00   0.00      0      0    163.6   0.00   0.00   0.29   0.57   0.40   0.20   0.00   0.00   0.00   0.00   0.00   0.00   0.00      0      0      0       0       3
 1988 257    45    42    6.0      1   0.15     89     14      0     78    103      0    0.0  0.000      0      0  0.000  0.000  0.000  0.039   3.73   0.00   0.00      0      0    166.9   0.00   0.00   0.30   0.67   0.50   0.30   0.00   0.00   0.00   0.00   0.00   0.00   0.00      0      0      0       0       3
 1988 258    46    43    7.0      1   0.15     94     14      0     94    108      0    0.0  0.000      0      0  0.000  0.000  0.000  0.002   3.91   0.00   0.00      0      0    165.0   0.00   0.00   0.30   0.78   0.60   0.41   0.00   0.00   0.00   0.00   0.00   0.00   0.00      0      0      0       0       3
 1988 259    47    44    7.0      1   0.11     96     14      0    102    110      0    0.0  0.000      0      0  0.000  0.000  0.000  0.000   4.03   0.00   0.00      0      0    111.7   0.00   0.00   0.30   0.83   0.66   0.46   0.00   0.00   0.00   0.00   0.00   0.00   0.00      0      0      0       0       4
 1988 260    48    45    7.0      1   0.08     98     14      0    107    112      0    0.0  0.000      0      0  0.000  0.000  0.000  0.000   3.96   0.00   0.00      0      0     83.9   0.00   0.00   0.30   0.87   0.69   0.49   0.00   0.00   0.00   0.00   0.00   0.00   0.00      0      0      0       0       4
 1988 261    49    46    7.0      1   0.07    100     14      0    111    114      0    0.0  0.000      0      0  0.000  0.000  0.009  0.000   3.88   0.00   0.00      0      0     72.4   0.00   0.00   0.30   0.89   0.71   0.51   0.00   0.00   0.00   0.00   0.00   0.00   0.00      0      0      0       0       4
 1988 262    50    47    7.0      1   0.09    110     14      0    112    124      0    0.0  0.000      0      0  0.000  0.000  0.018  0.000   3.57   0.00   0.00      0      0     82.4   0.00   0.00   0.31   0.89   0.72   0.52   0.00   0.00   0.00   0.00   0.00   0.00   0.00      0      0      0       0       4
 1988 263    51    48    7.0      1   0.12    125     14      0    116    139      0    0.0  0.000      0      0  0.000  0.000  0.025  0.000   3.64   0.00   0.00      0      0     93.7   0.00   0.00   0.31   0.92   0.74   0.55   0.00   0.00   0.00   0.00   0.00   0.00   0.00      0      0      0       0       4
 1988 264    52    49    7.0      1   0.17    140     14      0    118    154      0    0.0  0.000      0      0  0.000  0.000  0.000  0.000   3.63   0.00   0.00      0      0    118.0   0.00   0.00   0.33   0.93   0.75   0.56   0.00   0.00   0.00   0.00   0.00   0.00   0.00      0      0      0       0       5
 1988 265    53    50    8.0      1   0.19    153     14      0    120    167      0    0.0  0.000      0      0  0.000  0.000  0.000  0.000   3.73   0.00   0.00      0      0    123.5   0.00   0.00   0.34   0.94   0.76   0.57   0.00   0.00   0.00   0.00   0.00   0.00   0.00      0      0      0       0       6
 1988 266    54    51    8.0      1   0.22    167     14      0    122    181      0    0.0  0.000      0      0  0.000  0.000  0.000  0.000   3.68   0.00   0.00      0      0    128.7   0.00   0.00   0.35   0.90   0.73   0.56   0.00   0.00   0.00   0.00   0.00   0.00   0.00      0      0      0       0       6
 1988 267    55    52    8.0      1   0.26    194     14      0    126    208      0    0.0  0.000      0      0  0.000  0.000  0.000  0.000   3.46   0.00   0.00      0      0    135.6   0.00   0.00   0.37   0.85   0.71   0.55   0.01   0.00   0.00   0.00   0.00   0.00   0.00      0      0      0       0       7
 1988 268    56    53    8.0      1   0.28    221     14      0    133    235      0    0.0  0.000      0      0  0.000  0.000  0.000  0.273   3.51   0.00   0.00      0      0    126.4   0.00   0.00   0.37   0.84   0.73   0.58   0.02   0.00   0.00   0.00   0.00   0.00   0.00      0      0      0       0       7
 1988 269    57    54    8.0      1   0.30    232     14      0    139    246      0    0.0  0.000      0      0  0.000  0.000  0.000  0.111   3.78   0.00   0.00      0      0    127.9   0.00   0.00   0.38   0.84   0.75   0.61   0.03   0.00   0.00   0.00   0.00   0.00   0.00      0      0      0       0       8
 1988 270    58    55    8.0      1   0.31    238     14      0    143    252      0    0.0  0.000      0      0  0.000  0.000  0.000  0.259   3.84   0.00   0.00      0      0    128.8   0.00   0.00   0.38   0.80   0.73   0.60   0.03   0.00   0.00   0.00   0.00   0.00   0.00      0      0      0       0       9
 1988 271    59    56    9.0      1   0.33    251     14      0    156    265      0    0.0  0.000      0      0  0.000  0.000  0.000  0.292   3.74   0.00   0.00      0      0    130.2   0.00   0.00   0.39   0.76   0.76   0.66   0.05   0.00   0.00   0.00   0.00   0.00   0.00      0      0      0       0       9
 1988 272    60    57    9.0      1   0.35    263     14      0    194    277      0    0.0  0.000      0      0  0.000  0.000  0.000  0.291   3.74   0.00   0.00      0      0    131.4   0.00   0.00   0.40   0.78   0.93   0.90   0.12   0.00   0.00   0.00   0.00   0.00   0.00      0      0      0       0      10
 1988 273    61    58    9.0      1   0.38    286     14      0    244    300      0    0.0  0.000      0      0  0.000  0.000  0.000  0.101   3.61   0.00   0.00      0      0    133.1   0.00   0.00   0.41   0.83   1.18   1.23   0.23   0.00   0.00   0.00   0.00   0.00   0.00      0      0      0       0      11
 1988 274    62    59    9.0      2   0.43    293     14      0    308    307      0    0.0  0.000      0      0  0.000  0.000  0.000  0.015   3.78   0.00   0.00      0      0    146.6   0.00   0.00   0.42   0.92   1.49   1.66   0.38   0.00   0.00   0.00   0.00   0.00   0.00      0      0      0       0      12
 1988 275    63    60    9.0      2   0.51    341     14      0    345    355      0    0.0  0.000      0      0  0.000  0.000  0.002  0.000   3.38   0.00   0.00      0      0    148.3   0.00   0.00   0.44   0.97   1.67   1.91   0.47   0.00   0.00   0.00   0.00   0.00   0.00      0      0      0       0      14
 1988 276    64    61   10.0      2   0.58    391     14      0    360    405      0    0.0  0.000      0      0  0.000  0.000  0.000  0.000   3.35   0.00   0.00      0      0    149.1   0.00   0.00   0.45   1.00   1.75   2.01   0.52   0.00   0.00   0.00   0.00   0.00   0.00      0      0      0       0      16
 1988 277    65    62   10.0      2   0.62    413     14      0    400    427      0    0.0  0.000      0      0  0.000  0.000  0.000  0.000   3.85   0.00   0.00      0      0    149.3   0.00   0.00   0.46   1.03   1.91   2.26   0.63   0.01   0.00   0.00   0.00   0.00   0.00      0      0      0       0      18
 1988 278    66    63   10.0      3   0.66    448     14      0    483    462      0    0.0  0.000      0      0  0.000  0.000  0.022  0.000   3.68   0.00   0.00      0      0    147.5   0.00   0.00   0.47   1.09   2.28   2.79   0.86   0.03   0.00   0.00   0.00   0.00   0.00      0      0      0       0      19
 1988 279    67    64   10.0      3   0.71    480     14      0    577    494      0    0.0  0.000      0      0  0.000  0.000  0.022  0.000   3.58   0.00   0.00      0      0    147.0   0.00   0.00   0.48   1.18   2.68   3.37   1.12   0.08   0.00   0.00   0.00   0.00   0.00      0      0      0       0      22
 1988 280    68    65   10.0      3   0.76    519     14      0    671    533      0    0.0  0.000      0      0  0.000  0.000  0.022  0.001   3.56   0.00   0.00      0      0    146.4   0.00   0.00   0.49   1.27   3.08   3.95   1.38   0.14   0.00   0.00   0.00   0.00   0.00      0      0      0       0      25
 1988 281    69    66   11.0      3   0.83    569     15      0    766    584      0    0.0  0.000      0      0  0.000  0.000  0.022  0.001   3.53   0.00   0.00      0      0    145.6   0.00   0.00   0.50   1.38   3.46   4.00   1.63   0.22   0.00   0.00   0.00   0.00   0.00      0      0      0       0      28
 1988 282    70    67   11.0      3   0.90    623     16      0    848    639      0    0.0  0.000      0      0  0.000  0.000  0.022  0.001   3.50   0.00   0.00      0      0    144.7   0.00   0.00   0.51   1.48   3.78   4.00   1.86   0.31   0.00   0.00   0.00   0.00   0.00      0      0      0       0      32
 1988 283    71    68   11.0      3   0.96    668     17      0    883    686      0    0.0  0.000      0      0  0.000  0.000  0.022  0.000   3.47   0.00   0.00      0      0    143.7   0.00   0.00   0.52   1.52   3.91   4.00   1.96   0.36   0.00   0.00   0.00   0.00   0.00      0      0      0       0      36
 1988 284    72    69   11.0      3   1.02    711     19      0    991    730      0    0.0  0.000      0      0  0.000  0.000  0.022  0.000   3.45   0.00   0.00      0      0    142.8   0.00   0.00   0.53   1.67   4.00   4.00   2.26   0.52   0.00   0.00   0.00   0.00   0.00      0      0      0       0      41
 1988 285    73    70   12.0      3   1.11    784     23      0   1072    807      0    0.0  0.000      0      0  0.000  0.000  0.022  0.000   3.42   0.00   0.00      0      0    141.5   0.00   0.00   0.54   1.78   4.00   4.00   2.49   0.66   0.00   0.00   0.00   0.00   0.00      0      0      0       0      46
 1988 286    74    71   12.0      3   1.20    853     28      0   1190    881      0    0.0  0.000      0      0  0.000  0.000  0.022  0.000   3.39   0.00   0.00      0      0    140.3   0.00   0.00   0.55   1.94   4.00   4.00   2.82   0.89   0.00   0.00   0.00   0.00   0.00      0      0      0       0      51
 1988 287    75    72   12.0      3   1.25    898     31      0   1291    929      0    0.0  0.000      0      0  0.000  0.000  0.022  0.000   3.37   0.00   0.00      0      0    139.3   0.00   0.00   0.56   2.07   4.00   4.00   3.11   1.11   0.00   0.00   0.00   0.00   0.00      0      0      0       0      57
 1988 288    76    73   12.0      3   1.33    960     37      0   1385    997      0    0.0  0.000      0      0  0.000  0.000  0.022  0.000   3.35   0.00   0.00      0      0    138.2   0.00   0.00   0.57   2.19   4.00   4.00   3.39   1.33   0.00   0.00   0.00   0.00   0.00      0      0      0       0      63
 1988 289    77    74   12.0      3   1.32    990     40      0   1478   1030      0    0.0  0.000      0      0  0.000  0.000  0.022  0.000   3.37   0.00   0.00      0      0    133.4   0.00   0.00   0.57   2.30   4.00   4.00   3.67   1.57   0.00   0.00   0.00   0.00   0.00      0      0      0       0      70
[...]
 1992 322   110   107   21.0      3   3.60   4036   3143      0   5110   7179      0    0.0  0.000      0      0  0.000  0.000  0.069  0.000   1.71   0.00   0.00      0      0     89.2   0.00   0.00   0.95   4.00   4.00   4.00   4.00   4.00   2.37   1.57   0.00   0.00   0.00      0      0      0       0     690
 1992 323   111   108   21.0      3   3.60   4072   3248      0   5282   7320      0    0.0  0.000      0      0  0.000  0.000  0.071  0.000   1.69   0.00   0.00      0      0     88.4   0.00   0.00   0.96   4.00   4.00   4.00   4.00   4.00   2.54   2.06   0.00   0.00   0.00      0      0      0       0     715
 1992 324   112   109   21.0      3   3.62   4128   3409      0   5422   7536      0    0.0  0.000      0      0  0.000  0.000  0.071  0.000   1.65   0.00   0.00      0      0     87.7   0.00   0.00   0.97   4.00   4.00   4.00   4.00   4.00   2.68   2.45   0.00   0.00   0.00      0      0      0       0     742
 1992 325   113   110   21.0      3   3.65   4194   3600      0   5472   7794      0    0.0  0.000      0      0  0.000  0.000  0.071  0.000   1.61   0.00   0.00      0      0     87.0   0.00   0.00   0.99   4.00   4.00   4.00   4.00   4.00   2.74   2.61   0.00   0.00   0.00      0      0      0       0     769
 1992 326   114   111   21.0      3   3.65   4232   3708      0   5453   7939      0    0.0  0.000      0      0  0.000  0.000  0.074  0.000   1.59   0.00   0.00      0      0     86.3   0.00   0.00   1.00   4.00   4.00   4.00   3.99   3.99   2.73   2.61   0.00   0.00   0.00      0      0      0       0     796
 1992 327   115   112   21.0      3   3.64   4262   3797      0   5603   8059      0    0.0  0.000      0      0  0.000  0.000  0.080  0.000   1.57   0.00   0.00      0      0     85.5   0.00   0.00   1.00   4.00   4.00   4.00   4.00   4.00   2.91   2.84   0.00   0.00   0.00      0      0      0       0     823
 1992 328   116   113   21.0      3   3.63   4289   3873      0   5727   8162      0    0.0  0.000      0      0  0.000  0.000  0.082  0.000   1.56   0.00   0.00      0      0     84.7   0.00   0.00   1.01   4.00   4.00   4.00   4.00   4.00   3.06   2.94   0.00   0.00   0.00      0      0      0       0     851
 1992 329   117   114   21.0      3   3.64   4338   4014      0   5825   8351      0    0.0  0.000      0      0  0.000  0.000  0.082  0.000   1.54   0.00   0.00      0      0     83.9   0.00   0.00   1.02   4.00   4.00   4.00   4.00   4.00   3.19   2.99   0.00   0.00   0.00      0      0      0       0     880
 1992 330   118   115   21.0      3   3.65   4392   4169      0   5892   8561      0    0.0  0.000      0      0  0.000  0.000  0.082  0.000   1.50   0.00   0.00      0      0     83.2   0.00   0.00   1.03   4.00   4.00   4.00   4.00   4.00   3.28   3.04   0.00   0.00   0.00      0      0      0       0     909
 1992 331   119   116   21.0      4   3.61   4349   3532      0   5934   8725      0    0.0  0.000    844      0  0.000  0.000  0.084  0.000   1.64   0.00   0.10      0    844     83.1   0.00   0.00   1.04   4.00   4.00   4.00   4.00   4.00   3.35   3.07   0.00   0.00   0.00      0      0      0       0     938
 1992 332   120   117   21.0      4   3.58   4304   3590      0   6078   8884      0    0.0  0.000    990      0  0.000  0.000  0.086  0.000   1.64   0.00   0.11      0    990     83.1   0.00   0.00   1.05   4.00   4.00   4.00   4.00   4.00   3.53   3.17   0.00   0.00   0.00      0      0      0       0     968
 1992 333   121   118   21.0      4   3.55   4256   3656      0   6131   9066      0    0.0  0.000   1154      0  0.000  0.000  0.062  0.000   1.65   0.00   0.13      0   1154     83.4   0.00   0.00   1.06   4.00   4.00   4.00   4.00   4.00   3.60   3.21   0.00   0.00   0.00      0      0      0       0     999
 1992 334   122   119   21.0      4   3.52   4205   3737      0   6145   9297      0    0.0  0.000   1356      0  0.000  0.000  0.058  0.000   1.65   0.00   0.15      0   1356     83.8   0.00   0.00   1.08   4.00   4.00   4.00   4.00   4.00   3.63   3.23   0.00   0.00   0.00      0      0      0       0    1029
 1992 335   123   120   21.0      4   3.50   4150   3818      0   6178   9529      0    0.0  0.000   1560      0  0.000  0.000  0.054  0.000   1.65   0.00   0.16      0   1560     84.3   0.00   0.00   1.09   4.00   4.00   4.00   4.00   4.00   3.68   3.27   0.00   0.00   0.00      0      0      0       0    1060
 1992 336   124   121   21.0      4   3.48   4093   3877      0   6324   9677      0    0.0  0.000   1707      0  0.000  0.000  0.052  0.000   1.65   0.00   0.18      0   1707     84.9   0.00   0.00   1.10   4.00   4.00   4.00   4.00   4.00   3.85   3.39   0.12   0.00   0.00      0      0      0       0    1091
 1992 337   125   122   21.0      4   3.45   4035   3925      0   6495   9785      0    0.0  0.000   1826      0  0.000  0.000  0.050  0.000   1.66   0.00   0.19      0   1826     85.6   0.00   0.00   1.11   4.00   4.00   4.00   4.00   4.00   4.00   3.52   0.29   0.00   0.00      0      0      0       0    1122
 1992 338   126   123   21.0      4   3.43   3974   3982      0   6611   9925      0    0.0  0.000   1969      0  0.000  0.000  0.047  0.000   1.67   0.00   0.20      0   1969     86.4   0.00   0.00   1.11   4.00   4.00   4.00   4.00   4.00   4.00   3.61   0.44   0.00   0.00      0      0      0       0    1155
 1992 339   127   124   21.0      4   3.41   3910   4055      0   6739  10117      0    0.0  0.000   2152      0  0.000  0.000  0.044  0.000   1.67   0.00   0.21      0   2152     87.3   0.00   0.00   1.12   4.00   4.00   4.00   4.00   4.00   4.00   3.71   0.62   0.00   0.00      0      0      0       0    1188
 1992 340   128   125   21.0      4   3.40   3843   4127      0   6758  10302      0    0.0  0.000   2332      0  0.000  0.000  0.040  0.000   1.68   0.00   0.23      0   2332     88.4   0.00   0.00   1.13   4.00   4.00   4.00   4.00   4.00   4.00   3.73   0.68   0.00   0.00      0      0      0       0    1222
 1992 341   129   126   21.0      4   3.38   3773   4218      0   6806  10550      0    0.0  0.000   2559      0  0.000  0.000  0.037  0.000   1.68   0.00   0.24      0   2559     89.6   0.00   0.00   1.14   4.00   4.00   4.00   4.00   4.00   4.00   3.77   0.78   0.00   0.00      0      0      0       0    1255
 1992 342   130   127   21.0      4   3.37   3700   4290      0   6868  10731      0    0.0  0.000   2741      0  0.000  0.000  0.034  0.000   1.68   0.00   0.26      0   2741     91.0   0.00   0.00   1.15   4.00   4.00   4.00   4.00   4.00   4.00   3.82   0.90   0.00   0.00      0      0      0       0    1289
 1992 343   131   128   21.0      4   3.35   3624   4366      0   6946  10920      0    0.0  0.000   2930      0  0.000  0.000  0.032  0.000   1.69   0.00   0.27      0   2930     92.5   0.00   0.00   1.16   4.00   4.00   4.00   4.00   4.00   4.00   3.88   1.03   0.00   0.00      0      0      0       0    1324
 1992 344   132   129   21.0      4   3.34   3546   4444      0   6977  11113      0    0.0  0.000   3124      0  0.000  0.000  0.030  0.000   1.69   0.00   0.28      0   3124     94.2   0.00   0.00   1.17   4.00   4.00   4.00   4.00   4.00   4.00   3.91   1.09   0.00   0.00      0      0      0       0    1359
 1992 345   133   130   21.0      5   3.33   3546   4444    288   6980  11401   3840    7.5  0.025   3412      7  0.000  0.000  0.025  0.000   1.64   8.44   0.30      0   3412     93.9   0.00   0.00   1.18   4.00   4.00   4.00   4.00   4.00   4.00   3.92   1.12   0.00   0.00      0      0      0       0    1393
 1992 346   134   131   21.0      5   3.31   3546   4444    543   6992  11656   3840   14.1  0.047   3667      7  0.000  0.000  0.039  0.000   1.60  14.82   0.31      0   3667     93.5   0.00   0.00   1.19   4.00   4.00   4.00   4.00   4.00   4.00   3.93   1.15   0.00   0.00      0      0      0       0    1428
 1992 347   135   132   21.0      5   3.30   3546   4444    781   7037  11894   3840   20.3  0.066   3905      7  0.000  0.000  0.046  0.000   1.55  20.00   0.33      0   3905     93.0   0.00   0.00   1.20   4.00   4.00   4.00   4.00   4.00   4.00   3.97   1.20   0.00   0.00      0      0      0       0    1463
 1992 348   136   133   21.0      5   3.28   3546   4444   1069   7074  12182   3840   27.8  0.088   4193      7  0.000  0.000  0.050  0.000   1.50  25.50   0.34      0   4193     92.4   0.00   0.00   1.21   4.00   4.00   4.00   4.00   4.00   4.00   4.00   1.22   0.00   0.00      0      0      0       0    1498
 1992 349   137   134   21.0      5   3.25   3546   4444   1346   7104  12460   3840   35.1  0.108   4470      7  0.000  0.000  0.059  0.000   1.46  30.12   0.36      0   4470     91.7   0.00   0.00   1.22   4.00   4.00   4.00   4.00   4.00   4.00   4.00   1.23   0.00   0.00      0      0      0       0    1534
 1992 350   138   135   21.0      5   3.22   3546   4444   1553   7156  12666   3840   40.4  0.123   4676      7  0.000  0.000  0.068  0.000   1.42  33.20   0.37      0   4676     90.9   0.00   0.00   1.23   4.00   4.00   4.00   4.00   4.00   4.00   4.00   1.26   0.00   0.00      0      0      0       0    1569
 1992 351   139   136   21.0      5   3.19   3546   4444   1809   7170  12922   3840   47.1  0.140   4933      7  0.000  0.000  0.072  0.000   1.38  36.67   0.38      0   4933     90.1   0.00   0.00   1.24   4.00   4.00   4.00   4.00   4.00   4.00   4.00   1.27   0.00   0.00      0      0      0       0    1605
 1992 352   140   137   21.0      5   3.16   3546   4444   2097   7150  13210   3840   54.6  0.159   5221      7  0.000  0.000  0.078  0.000   1.34  40.17   0.40      0   5221     89.2   0.00   0.00   1.25   4.00   4.00   4.00   4.00   4.00   4.00   3.99   1.27   0.00   0.00      0      0      0       0    1641
 1992 353   141   138   21.0      5   3.13   3546   4444   2384   7175  13497   3840   62.1  0.177   5508      7  0.000  0.000  0.087  0.000   1.29  43.28   0.41      0   5508     88.2   0.00   0.00   1.25   4.00   4.00   4.00   4.00   4.00   4.00   4.00   1.29   0.00   0.00      0      0      0       0    1677
 1992 354   142   139   21.0      5   3.09   3546   4444   2672   7147  13785   3840   69.6  0.194   5796      7  0.000  0.000  0.096  0.000   1.25  46.10   0.42      0   5796     87.2   0.00   0.00   1.25   4.00   4.00   4.00   3.99   3.99   3.99   3.98   1.28   0.00   0.00      0      0      0       0    1713
 1992 355   143   140   21.0      5   3.05   3546   4444   2960   7178  14073   3840   77.1  0.210   6084      7  0.000  0.000  0.103  0.000   1.20  48.65   0.43      0   6084     86.0   0.00   0.00   1.25   4.00   4.00   4.00   4.00   4.00   4.00   4.00   1.30   0.00   0.00      0      0      0       0    1748
 1992 356   144   141   21.0      5   3.01   3546   4444   3248   7181  14361   3840   84.6  0.226   6372      7  0.000  0.000  0.112  0.000   1.16  50.97   0.44      0   6372     84.8   0.00   0.00   1.25   4.00   4.00   4.00   4.00   4.00   4.00   4.00   1.31   0.00   0.00      0      0      0       0    1784
 1992 357   145   142   21.0      5   2.96   3546   4347   3536   7145  14552   3840   92.1  0.243   6660      7  0.000  0.000  0.121  0.000   1.13  53.10   0.46      0   6660     83.6   0.00   0.00   1.25   4.00   4.00   4.00   4.00   4.00   4.00   4.00   1.31   0.00   0.00      0      0      0       0    1820
 1992 358   146   143   21.0      5   2.91   3546   4248   3824   7109  14741   3840   99.6  0.259   6948      7  0.000  0.000  0.130  0.000   1.11  55.04   0.47      0   6948     82.2   0.00   0.00   1.25   4.00   4.00   4.00   4.00   4.00   4.00   4.00   1.31   0.00   0.00      0      0      0       0    1856
 1992 359   147   144   21.0      5   2.87   3546   4336   4112   7118  15117   3840  107.1  0.272   7236      7  0.000  0.000  0.134  0.000   1.05  56.83   0.48      0   7236     80.8   0.00   0.00   1.25   4.00   4.00   4.00   4.00   4.00   4.00   4.00   1.32   0.00   0.00      0      0      0       0    1891
 1992 360   148   145   21.0      5   2.82   3546   4396   4371   7112  15436   3840  113.8  0.283   7494      7  0.000  0.000  0.138  0.000   1.01  58.32   0.49      0   7494     79.4   0.00   0.00   1.25   4.00   4.00   4.00   4.00   4.00   4.00   4.00   1.33   0.00   0.00      0      0      0       0    1927
 1992 361   149   146   21.0      5   2.76   3546   4444   4607   7145  15720   3840  120.0  0.293   7731      7  0.000  0.000  0.154  0.000   0.98  59.59   0.49      0   7731     77.9   0.00   0.00   1.25   4.00   4.00   4.00   4.00   4.00   4.00   4.00   1.35   0.00   0.00      0      0      0       0    1963
 1992 362   150   147   21.0      5   2.71   3546   4444   4844   7173  15957   3840  126.1  0.304   7967      7  0.000  0.000  0.164  0.000   0.95  60.79   0.50      0   7967     76.3   0.00   0.00   1.25   4.00   4.00   4.00   4.00   4.00   4.00   4.00   1.37   0.00   0.00      0      0      0       0    1998
 1992 363   151   148   21.0      5   2.65   3546   4444   5132   7183  16245   3840  133.6  0.316   8256      7  0.000  0.000  0.174  0.000   0.91  62.16   0.51      0   8256     74.6   0.00   0.00   1.25   4.00   4.00   4.00   4.00   4.00   4.00   4.00   1.38   0.00   0.00      0      0      0       0    2034
 1992 364   152   149   21.0      5   2.59   3546   4296   5420   7147  16385   3840  141.1  0.331   8544      7  0.000  0.000  0.184  0.000   0.90  63.44   0.52      0   8544     72.9   0.00   0.00   1.25   4.00   4.00   4.00   4.00   4.00   4.00   4.00   1.38   0.00   0.00      0      0      0       0    2070
 1992 365   153   150   21.0      5   2.52   3546   4169   5683   7111  16522   3840  148.0  0.344   8807      7  0.000  0.000  0.195  0.000   0.88  64.53   0.53      0   8807     71.2   0.00   0.00   1.25   4.00   4.00   4.00   4.00   4.00   4.00   4.00   1.38   0.00   0.00      0      0      0       0    2106
 1992 366   154   151   21.0      5   2.46   3546   4083   5906   7076  16658   3840  153.8  0.355   9029      7  0.000  0.000  0.197  0.000   0.87  65.41   0.54      0   9029     69.4   0.00   0.00   1.25   4.00   4.00   4.00   4.00   4.00   4.00   4.00   1.38   0.00   0.00      0      0      0       0    2141
 1993 001   155   152   21.0      5   2.40   3546   3979   6145   7040  16793   3840  160.0  0.366   9268      7  0.000  0.000  0.198  0.000   0.85  66.30   0.55      0   9268     67.7   0.00   0.00   1.25   4.00   4.00   4.00   4.00   4.00   4.00   4.00   1.38   0.00   0.00      0      0      0       0    2177
 1993 002   156   153   21.0      5   2.34   3546   3867   6388   7005  16925   3840  166.3  0.377   9512      7  0.000  0.000  0.211  0.210   0.83  67.16   0.56      0   9512     66.0   0.00   0.00   1.25   4.00   4.00   4.00   4.00   4.00   4.00   4.00   1.38   0.00   0.00      0      0      0       0    2212
 1993 003   157   154   21.0      5   2.28   3546   3747   6636   6970  17053   3840  172.8  0.389   9760      7  0.000  0.000  0.226  0.552   0.81  67.99   0.57      0   9760     64.2   0.00   0.00   1.25   4.00   4.00   4.00   4.00   4.00   4.00   4.00   1.38   0.00   0.00      0      0      0       0    2247
 1993 004   158   155   21.0      5   2.22   3546   3664   6924   6935  17258   3840  180.3  0.401  10048      7  0.000  0.000  0.239  0.553   0.78  68.91   0.58      0  10048     62.5   0.00   0.00   1.25   4.00   4.00   4.00   4.00   4.00   4.00   4.00   1.38   0.00   0.00      0      0      0       0    2282
 1993 005   159   156   21.0      5   2.16   3546   3676   7212   6907  17558   3840  187.8  0.411  10336      7  0.000  0.000  0.259  0.263   0.75  69.78   0.59      0  10336     60.8   0.00   0.00   1.25   3.93   3.93   3.93   3.92   3.92   3.92   3.92   1.35   0.00   0.00      0      0      0       0    2317
 1993 006   160   157   21.0      5   2.09   3546   3721   7500   6895  17891   3840  195.3  0.419  10624      7  0.000  0.000  0.286  0.063   0.71  70.60   0.59      0  10624     59.1   0.00   0.00   1.25   3.99   3.99   3.99   3.94   3.93   3.92   3.92   1.35   0.00   0.00      0      0      0       0    2351
 1993 007   161   158   21.0      5   2.03   3546   3581   7788   6860  18039   3840  202.8  0.432  10912      7  0.000  0.000  0.325  0.032   0.70  71.37   0.60      0  10912     57.3   0.00   0.00   1.25   3.99   3.99   3.99   3.94   3.93   3.92   3.92   1.35   0.00   0.00      0      0      0       0    2386
 1993 008   162   159   21.0      5   1.97   3546   3513   8076   6826  18259   3840  210.3  0.442  11200      7  0.000  0.000  0.374  0.199   0.67  72.11   0.61      0  11200     55.4   0.00   0.00   1.25   3.99   3.99   3.99   3.94   3.93   3.92   3.92   1.35   0.00   0.00      0      0      0       0    2420
 1993 009   163   160   21.0      5   1.90   3546   3541   8340   6806  18551   3840  217.2  0.450  11464      7  0.000  0.000  0.391  0.097   0.64  72.75   0.62      0  11464     53.6   0.00   0.00   1.25   4.00   4.00   4.00   3.94   3.93   3.92   3.91   1.35   0.00   0.00      0      0      0       0    2454
 1993 010   164   161   21.0      5   1.84   3546   3550   8628   6776  18847   3840  224.7  0.458  11752      7  0.000  0.000  0.417  0.034   0.62  73.42   0.62      0  11752     51.8   0.00   0.00   1.25   3.99   3.99   3.99   3.92   3.92   3.90   3.89   1.34   0.00   0.00      0      0      0       0    2488
 1993 011   165   162   21.0      5   1.77   3546   3546   8916   6742  19131   3840  232.2  0.466  12040      7  0.000  0.000  0.456  0.000   0.60  74.05   0.63      0  12040     49.9   0.00   0.00   1.25   3.99   3.99   3.99   3.92   3.92   3.90   3.89   1.34   0.00   0.00      0      0      0       0    2522
 1993 012   166   163   21.0      5   1.71   3546   3517   9204   6709  19390   3840  239.7  0.475  12328      7  0.000  0.000  0.490  0.000   0.58  74.66   0.64      0  12328     48.1   0.00   0.00   1.25   3.99   3.99   3.99   3.92   3.92   3.90   3.89   1.34   0.00   0.00      0      0      0       0    2556
 1993 013   167   164   21.0      5   1.64   3546   3406   9492   6675  19568   3840  247.2  0.485  12616      7  0.000  0.000  0.517  0.000   0.58  75.24   0.64      0  12616     46.3   0.00   0.00   1.25   3.99   3.99   3.99   3.92   3.92   3.90   3.89   1.34   0.00   0.00      0      0      0       0    2589
 1993 014   168   165   21.0      5   1.58   3546   3246   9780   6642  19695   3840  254.7  0.497  12904      7  0.000  0.000  0.539  0.000   0.57  75.79   0.66      0  12904     44.4   0.00   0.00   1.25   3.99   3.99   3.99   3.92   3.92   3.90   3.89   1.34   0.00   0.00      0      0      0       0    2622
 1993 015   169   166   21.0      5   1.58   3546   3246   9780   6642  19695   3840  254.7  0.497  12904      7  0.000  0.000  0.539  0.000   0.57  75.79   0.66      0  12904     44.4   0.00   0.00   1.25   3.99   3.99   3.99   3.92   3.92   3.90   3.89   1.34   0.00   0.00      0      0      0       0    2622
 1993 016   170   167   21.0      5   1.58   3546   3246   9780   6642  19695   3840  254.7  0.497  12904      7  0.000  0.000  0.539  0.000   0.57  75.79   0.66      0  12904     44.4   0.00   0.00   1.25   3.99   3.99   3.99   3.92   3.92   3.90   3.89   1.34   0.00   0.00      0      0      0       0    2622
 1993 017   171   168   21.0      5   1.58   3546   3246   9780   6642  19695   3840  254.7  0.497  12904      7  0.000  0.000  0.539  0.000   0.57  75.79   0.66      0  12904     44.4   0.00   0.00   1.25   3.99   3.99   3.99   3.92   3.92   3.90   3.89   1.34   0.00   0.00      0      0      0       0    2622
 1993 018   172   169   21.0      5   1.58   3546   3246   9780   6642  19695   3840  254.7  0.497  12904      7  0.000  0.000  0.539  0.000   0.57  75.79   0.66      0  12904     44.4   0.00   0.00   1.25   3.99   3.99   3.99   3.92   3.92   3.90   3.89   1.34   0.00   0.00      0      0      0       0    2622
