*PLANT N OUTPUT FILE

*DSSAT Cropping System Model Ver. 4.0.2.000               Aug 03, 2016; 15:38:57

*RUN   1        : UYMZ                    
 MODEL          : MZCER040 - Maize           
 EXPERIMENT     : UYMZ0133 MZ    late to create DSS                             
 TREATMENT  1   : UYMZ                    

@YEAR DOY   DAS   DAP   CNAD   GNAD   VNAD   GN%D   VN%D   NUPC   LNAD   SNAD   LN%D   SN%D   RN%D   SNN0C   SNN1C
 1987 215     3     0    0.0    0.0    0.0   0.00   0.00    0.0    0.0    0.0    0.0   0.00   0.00    0.00    0.00
 1987 216     4     1    0.0    0.0    0.0   0.00   0.00    0.0    0.0    0.0    0.0   0.00   0.00    0.00    0.00
 1987 217     5     2    0.0    0.0    0.0   0.00   0.00    0.0    0.0    0.0    0.0   0.00   0.00    0.00    0.00
 1987 218     6     3    0.0    0.0    0.0   0.00   0.00    0.0    0.0    0.0    0.0   0.00   0.00    0.00    0.00
 1987 219     7     4    0.0    0.0    0.0   0.00   0.00    0.0    0.0    0.0    0.0   0.00   0.00    0.00    0.00
 1987 220     8     5    0.0    0.0    0.0   0.00   0.00    0.0    0.0    0.0    0.0   0.00   0.00    0.00    0.00
 1987 221     9     6    0.0    0.0    0.0   0.00   0.00    0.0    0.0    0.0    0.0   0.00   0.00    0.00    0.00
 1987 222    10     7    0.0    0.0    0.0   0.00   0.00    0.0    0.0    0.0    0.0   0.00   0.00    0.00    0.00
 1987 223    11     8    0.0    0.0    0.0   0.00   0.00    0.0    0.0    0.0    0.0   0.00   0.00    0.00    0.00
 1987 224    12     9    0.0    0.0    0.0   0.00   0.00    0.0    0.0    0.0    0.0   0.00   0.00    0.00    0.00
 1987 225    13    10    0.0    0.0    0.0   0.00   0.00    0.0    0.0    0.0    0.0   0.00   0.00    0.00    0.00
 1987 226    14    11    0.0    0.0    0.0   0.00   0.00    0.0    0.0    0.0    0.0   0.00   0.00    0.00    0.00
 1987 227    15    12    0.0    0.0    0.0   0.00   0.00    0.0    0.0    0.0    0.0   0.00   0.00    0.00    0.00
 1987 228    16    13    0.0    0.0    0.0   0.00   0.00    0.0    0.0    0.0    0.0   0.00   0.00    0.00    0.00
 1987 229    17    14    0.0    0.0    0.0   0.00   0.00    0.0    0.0    0.0    0.0   0.00   0.00    0.00    0.00
 1987 230    18    15    0.0    0.0    0.0   0.00   0.00    0.0    0.0    0.0    0.0   0.00   0.00    0.00    0.00
 1987 231    19    16    0.0    0.0    0.0   0.00   0.00    0.0    0.0    0.0    0.0   0.00   0.00    0.00    0.00
 1987 232    20    17    1.2    0.0    1.2   0.00   4.40    0.0    0.6    0.6    4.4   4.40   0.00    0.00    0.00
 1987 233    21    18    1.3    0.0    1.3   0.00   4.56    0.2    0.6    0.6    4.6   4.56   1.07    0.00    0.00
 1987 234    22    19    1.3    0.0    1.3   0.00   4.56    0.2    0.6    0.6    4.6   4.56   1.06    0.00    0.00
 1987 235    23    20    1.3    0.0    1.3   0.00   4.56    0.2    0.6    0.6    4.6   4.56   1.05    0.00    0.00
 1987 236    24    21    1.3    0.0    1.3   0.00   4.56    0.2    0.6    0.6    4.6   4.56   1.03    0.00    0.00
 1987 237    25    22    1.3    0.0    1.3   0.00   4.56    0.2    0.6    0.6    4.6   4.56   0.99    0.00    0.00
 1987 238    26    23    1.3    0.0    1.3   0.00   4.48    0.2    0.6    0.6    4.5   4.48   1.13    0.00    0.00
 1987 239    27    24    1.2    0.0    1.2   0.00   4.46    0.2    0.6    0.6    4.5   4.46   1.13    0.00    0.00
 1987 240    28    25    1.2    0.0    1.2   0.00   4.46    0.2    0.6    0.6    4.5   4.46   1.10    0.00    0.00
 1987 241    29    26    1.2    0.0    1.2   0.00   4.46    0.2    0.6    0.6    4.5   4.46   1.08    0.00    0.00
 1987 242    30    27    1.2    0.0    1.2   0.00   4.43    0.2    0.6    0.6    4.4   4.43   1.26    0.00    0.00
 1987 243    31    28    1.2    0.0    1.2   0.00   4.42    0.3    0.6    0.6    4.4   4.42   1.25    0.00    0.00
 1987 244    32    29    1.2    0.0    1.2   0.00   4.42    0.3    0.6    0.6    4.4   4.42   1.19    0.00    0.00
 1987 245    33    30    1.2    0.0    1.2   0.00   4.42    0.3    0.6    0.6    4.4   4.42   1.17    0.00    0.00
 1987 246    34    31    1.2    0.0    1.2   0.00   4.39    0.3    0.6    0.6    4.4   4.39   1.22    0.00    0.01
 1987 247    35    32    1.2    0.0    1.2   0.00   4.38    0.3    0.6    0.6    4.4   4.38   1.25    0.00    0.01
 1987 248    36    33    1.2    0.0    1.2   0.00   4.38    0.3    0.6    0.6    4.4   4.38   1.20    0.00    0.01
 1987 249    37    34    1.2    0.0    1.2   0.00   4.37    0.3    0.6    0.6    4.4   4.37   1.22    0.00    0.01
 1987 250    38    35    1.2    0.0    1.2   0.00   4.36    0.3    0.6    0.6    4.4   4.36   1.16    0.00    0.01
 1987 251    39    36    1.2    0.0    1.2   0.00   4.34    0.3    0.6    0.6    4.3   4.34   1.12    0.00    0.01
 1987 252    40    37    1.2    0.0    1.2   0.00   4.27    0.3    0.6    0.6    4.3   4.27   1.09    0.00    0.01
 1987 253    41    38    1.2    0.0    1.2   0.00   3.99    0.4    0.7    0.6    4.0   3.99   1.22    0.00    0.01
 1987 254    42    39    1.3    0.0    1.3   0.00   3.99    0.6    0.8    0.6    4.0   3.99   1.27    0.00    0.02
 1987 255    43    40    1.4    0.0    1.4   0.00   4.01    0.8    0.9    0.6    4.0   4.01   1.28    0.00    0.02
 1987 256    44    41    1.5    0.0    1.5   0.00   3.66    0.9    1.0    0.5    3.7   3.66   1.19    0.00    0.02
 1987 257    45    42    1.8    0.0    1.8   0.00   3.66    1.1    1.3    0.5    3.7   3.66   1.08    0.00    0.02
 1987 258    46    43    2.0    0.0    2.0   0.00   3.96    1.5    1.5    0.6    4.0   3.96   1.21    0.00    0.03
 1987 259    47    44    2.2    0.0    2.2   0.00   4.16    1.9    1.6    0.6    4.2   4.16   1.49    0.00    0.03
 1987 260    48    45    2.2    0.0    2.2   0.00   3.94    1.9    1.6    0.6    3.9   3.94   1.35    0.00    0.03
 1987 261    49    46    2.3    0.0    2.3   0.00   3.97    2.0    1.8    0.6    4.0   3.97   1.21    0.00    0.03
 1987 262    50    47    2.5    0.0    2.5   0.00   4.08    2.4    1.9    0.6    4.1   4.08   1.36    0.00    0.04
 1987 263    51    48    2.5    0.0    2.5   0.00   4.02    2.5    2.0    0.6    4.0   4.02   1.29    0.00    0.05
 1987 264    52    49    2.7    0.0    2.7   0.00   4.10    2.6    2.1    0.6    4.1   4.10   1.18    0.00    0.05
 1987 265    53    50    2.7    0.0    2.7   0.00   4.08    2.8    2.2    0.6    4.1   4.08   1.22    0.00    0.06
 1987 266    54    51    2.8    0.0    2.8   0.00   3.94    2.8    2.2    0.6    3.9   3.94   1.15    0.00    0.06
 1987 267    55    52    3.0    0.0    3.0   0.00   3.83    3.1    2.4    0.5    3.8   3.83   1.17    0.00    0.07
 1987 268    56    53    3.2    0.0    3.2   0.00   3.67    3.4    2.7    0.5    3.7   3.67   1.15    0.00    0.08
 1987 269    57    54    3.6    0.0    3.6   0.00   3.49    3.9    3.1    0.5    3.5   3.49   1.12    0.00    0.08
 1987 270    58    55    4.2    0.0    4.2   0.00   3.67    4.7    3.7    0.5    3.7   3.67   1.17    0.00    0.09
 1987 271    59    56    4.7    0.0    4.7   0.00   3.74    5.5    4.2    0.5    3.7   3.74   1.21    0.00    0.10
 1987 272    60    57    5.1    0.0    5.1   0.00   3.61    6.1    4.6    0.5    3.6   3.61   1.18    0.00    0.11
 1987 273    61    58    5.7    0.0    5.7   0.00   3.66    6.6    5.2    0.5    3.7   3.66   1.09    0.00    0.12
 1987 274    62    59    6.3    0.0    6.3   0.00   3.72    7.9    5.8    0.5    3.7   3.72   1.24    0.00    0.13
 1987 275    63    60    6.8    0.0    6.8   0.00   3.81    8.8    6.3    0.5    3.8   3.81   1.25    0.00    0.15
 1987 276    64    61    7.2    0.0    7.2   0.00   3.76    9.2    6.6    0.5    3.8   3.76   1.17    0.00    0.16
 1987 277    65    62    7.6    0.0    7.6   0.00   3.56   10.2    7.1    0.5    3.6   3.56   1.20    0.00    0.18
 1987 278    66    63    8.4    0.0    8.4   0.00   3.50   11.6    8.0    0.5    3.5   3.50   1.20    0.00    0.20
 1987 279    67    64    9.5    0.0    9.5   0.00   3.53   12.8    9.0    0.5    3.5   3.53   1.15    0.00    0.22
 1987 280    68    65   10.5    0.0   10.5   0.00   3.55   13.7   10.0    0.5    3.5   3.55   1.09    0.00    0.24
 1987 281    69    66   11.6    0.0   11.6   0.00   3.57   15.4   11.1    0.5    3.6   3.57   1.15    0.00    0.26
 1987 282    70    67   12.5    0.0   12.5   0.00   3.81   17.7   12.0    0.5    3.8   3.81   1.23    0.00    0.29
 1987 283    71    68   12.8    0.0   12.8   0.00   3.29   18.1   12.4    0.5    3.3   3.29   1.15    0.00    0.32
 1987 284    72    69   14.9    0.0   14.9   0.00   3.35   20.5   14.4    0.5    3.4   3.35   1.14    0.00    0.35
 1987 285    73    70   18.6    0.0   18.6   0.00   3.78   25.5   18.1    0.5    3.8   3.78   1.20    0.00    0.39
 1987 286    74    71   19.2    0.0   19.2   0.00   3.69   27.2   18.7    0.5    3.7   3.69   1.21    0.00    0.43
 1987 287    75    72   19.5    0.0   19.5   0.00   3.60   27.5   19.0    0.5    3.6   3.60   1.14    0.00    0.47
 1987 288    76    73   20.4    0.0   20.4   0.00   3.57   28.4   19.9    0.5    3.6   3.57   1.10    0.00    0.52
 1987 289    77    74   21.6    0.0   21.6   0.00   3.54   30.9   21.1    0.5    3.5   3.54   1.16    0.00    0.57
 1987 290    78    75   22.7    0.0   22.7   0.00   3.52   34.0   22.2    0.5    3.5   3.52   1.21    0.00    0.62
 1987 291    79    76   24.0    0.0   24.0   0.00   3.50   36.8   23.4    0.5    3.5   3.50   1.20    0.00    0.68
 1987 292    80    77   25.4    0.0   25.4   0.00   3.48   39.0   24.8    0.6    3.5   3.48   1.16    0.00    0.75
 1987 293    81    78   27.2    0.0   27.2   0.00   3.46   42.5   26.5    0.6    3.5   3.46   1.17    0.00    0.82
 1987 294    82    79   29.8    0.0   29.8   0.00   3.43   46.1   29.1    0.8    3.4   3.43   1.15    0.00    0.91
 1987 295    83    80   32.3    0.0   32.3   0.00   3.40   49.4   31.4    0.9    3.4   3.40   1.13    0.00    0.99
 1987 296    84    81   35.8    0.0   35.8   0.00   3.36   54.1   34.6    1.2    3.4   3.36   1.14    0.00    1.09
 1987 297    85    82   39.3    0.0   39.3   0.00   3.32   58.2   37.7    1.6    3.3   3.32   1.12    0.00    1.18
 1987 298    86    83   42.5    0.0   42.5   0.00   3.28   61.1   40.4    2.1    3.3   3.28   1.08    0.00    1.28
 1987 299    87    84   46.3    0.0   46.3   0.00   3.25   64.6   43.6    2.8    3.2   3.25   1.07    0.00    1.38
 1987 300    88    85   49.3    0.0   49.3   0.00   3.22   67.8   45.9    3.3    3.2   3.22   1.08    0.00    1.48
 1987 301    89    86   52.5    0.0   52.5   0.00   3.19   72.8   48.4    4.0    3.2   3.19   1.12    0.00    1.58
 1987 302    90    87   56.1    0.0   56.1   0.00   3.15   79.0   51.1    4.9    3.2   3.15   1.16    0.00    1.68
 1987 303    91    88   60.7    0.0   60.7   0.00   3.12   84.8   54.4    6.3    3.1   3.12   1.14    0.00    1.80
 1987 304    92    89   65.6    0.0   65.6   0.00   3.08   91.2   57.7    7.9    3.1   3.08   1.14    0.00    1.93
 1987 305    93    90   70.2    0.0   70.2   0.00   3.04   95.0   60.7    9.5    3.0   3.04   1.09    0.00    2.06
 1987 306    94    91   75.5    0.0   75.5   0.00   3.00  100.1   63.9   11.6    3.0   3.00   1.07    0.00    2.19
 1987 307    95    92   80.3    0.0   80.3   0.00   2.97  105.2   66.7   13.6    3.0   2.97   1.08    0.00    2.32
 1987 308    96    93   83.5    0.0   83.5   0.00   2.94  108.1   68.4   15.1    2.9   2.94   1.07    0.00    2.45
 1987 309    97    94   86.8    0.0   86.8   0.00   2.91  111.4   70.1   16.7    2.9   2.91   1.07    0.00    2.58
 1987 310    98    95   91.2    0.0   91.2   0.00   2.88  116.1   72.3   18.9    2.9   2.88   1.07    0.00    2.71
 1987 311    99    96   94.7    0.0   94.7   0.00   2.83  122.6   73.8   20.9    2.8   2.83   1.12    0.00    2.83
 1987 312   100    97   98.7    0.0   98.7   0.00   2.80  127.9   75.6   23.1    2.8   2.80   1.11    0.00    2.98
 1987 313   101    98  100.8    0.0  100.8   0.00   2.78  132.1   76.4   24.4    2.8   2.78   1.10    0.00    3.13
 1987 314   102    99  103.0    0.0  103.0   0.00   2.72  135.5   76.9   26.1    2.7   2.72   1.08    0.00    3.29
 1987 315   103   100  105.1    0.0  105.1   0.00   2.61  138.4   76.8   28.3    2.6   2.61   1.05    0.00    3.46
 1987 316   104   101  107.2    0.0  107.2   0.00   2.50  140.8   76.5   30.7    2.5   2.50   1.04    0.00    3.63
 1987 317   105   102  109.1    0.0  109.1   0.00   2.31  142.9   78.3   30.9    2.3   2.31   1.04    0.00    3.80
 1987 318   106   103  110.4    0.0  110.4   0.00   2.15  144.2   77.2   33.2    2.1   2.15   1.04    0.00    3.97
 1987 319   107   104  111.7    0.0  111.7   0.00   2.03  145.6   76.2   35.5    2.0   2.03   1.03    0.00    4.15
 1987 320   108   105  112.7    0.0  112.7   0.00   1.97  146.7   75.7   37.0    2.0   1.97   0.98    0.00    4.32
 1987 321   109   106  113.7    0.0  113.7   0.00   1.90  147.9   74.7   39.0    1.9   1.90   0.95    0.00    4.49
 1987 322   110   107  114.9    0.0  114.9   0.00   1.85  149.3   74.1   40.8    1.8   1.85   0.96    0.00    4.67
 1987 323   111   108  115.7    0.0  115.7   0.00   1.79  150.1   73.2   42.5    1.8   1.79   0.96    0.00    4.85
 1987 324   112   109  116.7    0.0  116.7   0.00   1.75  151.1   72.7   43.9    1.8   1.75   0.96    0.00    5.02
 1987 325   113   110  117.5    0.0  117.5   0.00   1.73  152.2   72.4   45.1    1.7   1.73   0.92    0.00    5.20
 1987 326   114   111  118.6    0.0  118.6   0.00   1.71  153.5   72.4   46.3    1.7   1.71   0.88    0.00    5.37
 1987 327   115   112  120.0    0.0  120.0   0.00   1.69  155.1   72.3   47.7    1.7   1.69   0.88    0.00    5.55
 1987 328   116   113  121.2    0.0  121.2   0.00   1.65  156.4   71.8   49.4    1.7   1.65   0.88    0.00    5.73
 1987 329   117   114  122.2    0.0  122.2   0.00   1.62  157.7   71.2   51.1    1.6   1.62   0.88    0.00    5.91
 1987 330   118   115  123.2    0.0  123.2   0.00   1.58  158.7   70.7   52.5    1.6   1.58   0.87    0.00    6.09
 1987 331   119   116  124.0    0.0  124.0   0.00   1.55  159.7   70.2   53.8    1.6   1.55   0.85    0.00    6.27
 1987 332   120   117  125.0    0.0  125.0   0.00   1.52  160.9   69.6   55.4    1.5   1.52   0.83    0.00    6.45
 1987 333   121   118  125.8    0.0  125.8   0.00   1.48  161.9   68.8   57.0    1.5   1.48   0.81    0.00    6.64
 1987 334   122   119  126.6    0.0  126.6   0.00   1.43  162.9   68.0   58.7    1.4   1.43   0.80    0.00    6.82
 1987 335   123   120  127.5    0.0  127.5   0.00   1.55  163.9   73.0   54.5    1.6   1.55   0.79    0.00    7.00
 1987 336   124   121  128.4    0.0  128.4   0.00   1.56  165.0   72.4   55.9    1.6   1.56   0.79    0.00    7.19
 1987 337   125   122  129.2    0.0  129.2   0.00   1.57  166.1   72.1   57.1    1.6   1.57   0.80    0.00    7.37
 1987 338   126   123  129.8    0.0  129.8   0.00   1.58  166.9   71.7   58.2    1.6   1.58   0.80    0.00    7.56
 1987 339   127   124  130.3    0.0  130.3   0.00   1.59  167.6   71.0   59.3    1.6   1.59   0.78    0.00    7.75
 1987 340   128   125  131.0    0.0  131.0   0.00   1.59  168.5   70.4   60.6    1.6   1.59   0.76    0.00    7.94
 1987 341   129   126  131.8    0.0  131.8   0.00   1.60  169.7   69.9   61.9    1.6   1.60   0.77    0.00    8.13
 1987 342   130   127  132.5    0.0  132.5   0.00   1.61  170.7   69.2   63.3    1.6   1.61   0.76    0.00    8.32
 1987 343   131   128  133.2    0.0  133.2   0.00   1.62  171.8   68.5   64.6    1.6   1.62   0.74    0.00    8.51
 1987 344   132   129  133.8    0.0  133.8   0.00   1.63  172.9   67.6   66.2    1.6   1.63   0.73    0.00    8.71
 1987 345   133   130  134.5    0.0  134.5   0.00   1.64  174.2   66.8   67.8    1.6   1.64   0.74    0.00    8.90
 1987 346   134   131  135.0    0.0  135.0   0.00   1.65  175.2   65.9   69.1    1.6   1.65   0.72    0.00    9.10
 1987 347   135   132  135.5    0.0  135.5   0.00   1.66  176.2   65.0   70.5    1.7   1.66   0.71    0.00    9.31
 1987 348   136   133  135.9    0.0  135.9   0.00   1.67  177.2   63.9   72.0    1.7   1.67   0.72    0.00    9.51
 1987 349   137   134  136.4    4.4  132.0   1.58   1.62  178.1   62.0   69.9    1.6   1.62   0.72    0.00    9.72
 1987 350   138   135  136.8    8.5  128.3   1.57   1.58  179.0   60.8   67.6    1.6   1.58   0.73    0.00    9.93
 1987 351   139   136  137.1   11.7  125.4   1.55   1.54  179.6   58.9   66.5    1.5   1.54   0.73    0.00   10.14
 1987 352   140   137  137.5   14.6  122.9   1.55   1.51  180.3   57.8   65.1    1.5   1.51   0.73    0.00   10.35
 1987 353   141   138  138.0   17.4  120.6   1.54   1.48  181.3   56.7   63.9    1.5   1.48   0.73    0.00   10.57
 1987 354   142   139  138.6   20.7  117.9   1.53   1.44  182.3   55.4   62.5    1.4   1.44   0.74    0.00   10.79
 1987 355   143   140  139.1   23.3  115.8   1.52   1.42  183.3   54.4   61.4    1.4   1.42   0.73    0.00   11.01
 1987 356   144   141  139.6   25.9  113.7   1.51   1.39  184.2   53.4   60.2    1.4   1.39   0.74    0.00   11.23
 1987 357   145   142  140.1   28.8  111.2   1.51   1.36  185.1   52.3   59.0    1.4   1.36   0.74    0.00   11.45
 1987 358   146   143  140.6   32.0  108.5   1.50   1.33  186.0   51.0   57.5    1.3   1.33   0.74    0.00   11.68
 1987 359   147   144  141.0   35.3  105.8   1.49   1.30  186.8   50.0   55.8    1.3   1.30   0.75    0.00   11.90
 1987 360   148   145  141.5   39.2  102.4   1.48   1.26  187.7   48.5   53.9    1.3   1.26   0.76    0.00   12.13
 1987 361   149   146  142.0   43.0   99.0   1.47   1.21  188.5   46.5   52.4    1.2   1.21   0.76    0.00   12.36
 1987 362   150   147  142.4   46.9   95.5   1.46   1.17  189.1   44.9   50.6    1.2   1.17   0.77    0.00   12.60
 1987 363   151   148  142.8   50.3   92.4   1.45   1.15  189.8   44.0   48.4    1.1   1.15   0.77    0.00   12.83
 1987 364   152   149  143.2   53.9   89.2   1.44   1.11  190.4   42.6   46.6    1.1   1.11   0.78    0.00   13.06
 1987 365   153   150  143.6   57.5   86.1   1.43   1.06  191.1   40.8   45.3    1.1   1.06   0.78    0.00   13.30
 1988 001   154   151  144.1   61.0   83.1   1.42   1.02  191.8   39.0   44.0    1.0   1.02   0.78    0.00   13.54
 1988 002   155   152  144.9   64.4   80.5   1.40   0.99  193.0   37.8   42.6    1.0   0.99   0.79    0.00   13.78
 1988 003   156   153  145.5   67.7   77.8   1.39   0.95  194.0   36.6   41.2    1.0   0.95   0.79    0.00   14.02
 1988 004   157   154  146.3   71.0   75.3   1.38   0.92  195.2   35.4   39.9    0.9   0.92   0.79    0.00   14.26
 1988 005   158   155  146.9   74.2   72.7   1.37   0.89  196.1   34.2   38.5    0.9   0.89   0.80    0.00   14.50
 1988 006   159   156  147.3   75.9   71.4   1.36   0.88  196.8   33.6   37.8    0.9   0.88   0.80    0.00   14.75
 1988 007   160   157  147.8   78.1   69.8   1.35   0.86  197.5   32.8   37.0    0.9   0.86   0.79    0.00   14.99
 1988 008   161   158  148.7   80.8   67.8   1.34   0.83  198.7   31.9   35.9    0.8   0.83   0.80    0.00   15.24
 1988 009   162   159  149.4   83.7   65.6   1.32   0.80  199.8   30.9   34.8    0.8   0.80   0.80    0.00   15.49
 1988 010   163   160  150.1   86.6   63.5   1.31   0.78  200.8   29.8   33.6    0.8   0.78   0.81    0.00   15.74
 1988 011   164   161  150.7   89.4   61.3   1.30   0.75  201.8   28.8   32.5    0.8   0.75   0.81    0.00   15.99
 1988 012   165   162  151.4   92.2   59.2   1.29   0.73  202.8   27.8   31.4    0.7   0.73   0.82    0.00   16.24
 1988 013   166   163  152.0   94.7   57.3   1.27   0.71  203.6   27.3   30.0    0.7   0.71   0.83    0.00   16.50
 1988 014   167   164  152.5   97.2   55.3   1.26   0.68  204.3   26.3   29.0    0.7   0.68   0.83    0.00   16.75
 1988 015   168   165  153.2   99.6   53.6   1.25   0.66  205.3   25.4   28.1    0.7   0.66   0.84    0.00   17.01
 1988 016   169   166  153.9  102.0   51.9   1.23   0.65  206.3   24.8   27.1    0.6   0.65   0.85    0.00   17.27
 1988 017   170   167  154.8  104.4   50.4   1.22   0.63  207.5   24.1   26.3    0.6   0.63   0.86    0.00   17.53
 1988 018   171   168  155.4  106.6   48.8   1.21   0.62  208.3   23.9   24.9    0.6   0.62   0.87    0.00   17.79
 1988 019   172   169  155.6  108.5   47.2   1.20   0.61  208.7   23.6   23.6    0.6   0.61   0.87    0.00   18.05
 1988 020   173   170  155.9  110.4   45.5   1.18   0.61  209.1   23.2   22.2    0.6   0.61   0.88    0.00   18.31
 1988 021   174   171  156.0  112.3   43.7   1.17   0.59  209.2   22.7   21.0    0.6   0.59   0.88    0.00   18.58
 1988 022   175   172  156.0  112.3   43.7   1.17   0.59  209.4   22.7   21.0    0.6   0.59   0.88    0.00   18.58
 1988 023   176   173  156.0  112.3   43.7   1.17   0.59  209.6   22.7   21.0    0.6   0.59   0.88    0.00   18.58
 1988 024   177   174  156.0  112.3   43.7   1.17   0.59  209.7   22.7   21.0    0.6   0.59   0.88    0.00   18.58
 1988 025   178   175  156.0  112.3   43.7   1.17   0.59  209.9   22.7   21.0    0.6   0.59   0.88    0.00   18.58

*DSSAT Cropping System Model Ver. 4.0.2.000               Aug 03, 2016; 15:38:57

*RUN   2        : UYMZ                    
 MODEL          : MZCER040 - Maize           
 EXPERIMENT     : UYMZ0133 MZ    late to create DSS                             
 TREATMENT  1   : UYMZ                    

@YEAR DOY   DAS   DAP   CNAD   GNAD   VNAD   GN%D   VN%D   NUPC   LNAD   SNAD   LN%D   SN%D   RN%D   SNN0C   SNN1C
 1988 215     3     0    0.0    0.0    0.0   0.00   0.00    0.0    0.0    0.0    0.0   0.00   0.00    0.00    0.00
 1988 216     4     1    0.0    0.0    0.0   0.00   0.00    0.0    0.0    0.0    0.0   0.00   0.00    0.00    0.00
 1988 217     5     2    0.0    0.0    0.0   0.00   0.00    0.0    0.0    0.0    0.0   0.00   0.00    0.00    0.00
 1988 218     6     3    0.0    0.0    0.0   0.00   0.00    0.0    0.0    0.0    0.0   0.00   0.00    0.00    0.00
 1988 219     7     4    0.0    0.0    0.0   0.00   0.00    0.0    0.0    0.0    0.0   0.00   0.00    0.00    0.00
 1988 220     8     5    0.0    0.0    0.0   0.00   0.00    0.0    0.0    0.0    0.0   0.00   0.00    0.00    0.00
 1988 221     9     6    0.0    0.0    0.0   0.00   0.00    0.0    0.0    0.0    0.0   0.00   0.00    0.00    0.00
 1988 222    10     7    0.0    0.0    0.0   0.00   0.00    0.0    0.0    0.0    0.0   0.00   0.00    0.00    0.00
 1988 223    11     8    0.0    0.0    0.0   0.00   0.00    0.0    0.0    0.0    0.0   0.00   0.00    0.00    0.00
 1988 224    12     9    0.0    0.0    0.0   0.00   0.00    0.0    0.0    0.0    0.0   0.00   0.00    0.00    0.00
 1988 225    13    10    0.0    0.0    0.0   0.00   0.00    0.0    0.0    0.0    0.0   0.00   0.00    0.00    0.00
 1988 226    14    11    0.0    0.0    0.0   0.00   0.00    0.0    0.0    0.0    0.0   0.00   0.00    0.00    0.00
 1988 227    15    12    0.0    0.0    0.0   0.00   0.00    0.0    0.0    0.0    0.0   0.00   0.00    0.00    0.00
 1988 228    16    13    0.0    0.0    0.0   0.00   0.00    0.0    0.0    0.0    0.0   0.00   0.00    0.00    0.00
 1988 229    17    14    1.2    0.0    1.2   0.00   4.40    0.0    0.6    0.6    4.4   4.40   0.00    0.00    0.00
 1988 230    18    15    1.3    0.0    1.3   0.00   4.55    0.2    0.6    0.6    4.6   4.55   1.08    0.00    0.00
 1988 231    19    16    1.3    0.0    1.3   0.00   4.55    0.2    0.6    0.6    4.6   4.55   1.06    0.00    0.00
 1988 232    20    17    1.3    0.0    1.3   0.00   4.55    0.2    0.6    0.6    4.6   4.55   1.05    0.00    0.00
 1988 233    21    18    1.3    0.0    1.3   0.00   4.55    0.2    0.6    0.6    4.6   4.55   1.00    0.00    0.00
 1988 234    22    19    1.2    0.0    1.2   0.00   4.46    0.2    0.6    0.6    4.5   4.46   1.16    0.00    0.00
 1988 235    23    20    1.2    0.0    1.2   0.00   4.44    0.2    0.6    0.6    4.4   4.44   1.17    0.00    0.00
 1988 236    24    21    1.2    0.0    1.2   0.00   4.41    0.2    0.6    0.6    4.4   4.41   1.16    0.00    0.00
 1988 237    25    22    1.2    0.0    1.2   0.00   4.38    0.3    0.6    0.6    4.4   4.38   1.17    0.00    0.00
 1988 238    26    23    1.2    0.0    1.2   0.00   4.37    0.3    0.6    0.6    4.4   4.37   1.28    0.00    0.01
 1988 239    27    24    1.2    0.0    1.2   0.00   4.37    0.4    0.6    0.6    4.4   4.37   1.41    0.00    0.01
 1988 240    28    25    1.2    0.0    1.2   0.00   4.37    0.4    0.6    0.6    4.4   4.37   1.36    0.00    0.01
 1988 241    29    26    1.2    0.0    1.2   0.00   4.37    0.4    0.6    0.6    4.4   4.37   1.34    0.00    0.01
 1988 242    30    27    1.2    0.0    1.2   0.00   4.37    0.4    0.6    0.6    4.4   4.37   1.31    0.00    0.01
 1988 243    31    28    1.2    0.0    1.2   0.00   3.97    0.4    0.7    0.6    4.0   3.97   1.26    0.00    0.01
 1988 244    32    29    1.3    0.0    1.3   0.00   3.89    0.5    0.8    0.5    3.9   3.89   1.14    0.00    0.01
 1988 245    33    30    1.5    0.0    1.5   0.00   4.17    0.7    0.9    0.6    4.2   4.17   1.26    0.00    0.01
 1988 246    34    31    1.5    0.0    1.5   0.00   4.25    0.7    0.9    0.6    4.3   4.25   1.31    0.00    0.01
 1988 247    35    32    1.5    0.0    1.5   0.00   4.13    0.7    0.9    0.6    4.1   4.13   1.28    0.00    0.01
 1988 248    36    33    1.5    0.0    1.5   0.00   3.86    0.7    1.0    0.5    3.9   3.86   1.27    0.00    0.01
 1988 249    37    34    1.7    0.0    1.7   0.00   3.69    0.8    1.2    0.5    3.7   3.69   1.07    0.00    0.02
 1988 250    38    35    1.9    0.0    1.9   0.00   3.77    1.1    1.4    0.5    3.8   3.77   1.08    0.00    0.02
 1988 251    39    36    2.2    0.0    2.2   0.00   3.72    1.3    1.6    0.5    3.7   3.72   1.08    0.00    0.02
 1988 252    40    37    2.4    0.0    2.4   0.00   3.50    1.6    2.0    0.5    3.5   3.50   1.11    0.00    0.02
 1988 253    41    38    2.9    0.0    2.9   0.00   3.88    2.2    2.4    0.5    3.9   3.88   1.13    0.00    0.02
 1988 254    42    39    3.1    0.0    3.1   0.00   4.05    2.4    2.6    0.6    4.1   4.05   1.15    0.00    0.03
 1988 255    43    40    3.2    0.0    3.2   0.00   3.86    2.6    2.7    0.5    3.9   3.86   1.22    0.00    0.03
 1988 256    44    41    3.5    0.0    3.5   0.00   3.73    3.0    2.9    0.5    3.7   3.73   1.28    0.00    0.03
 1988 257    45    42    3.8    0.0    3.8   0.00   3.73    3.6    3.3    0.5    3.7   3.73   1.29    0.00    0.03
 1988 258    46    43    4.2    0.0    4.2   0.00   3.91    4.3    3.7    0.5    3.9   3.91   1.38    0.00    0.04
 1988 259    47    44    4.4    0.0    4.4   0.00   4.03    4.7    3.9    0.6    4.0   4.03   1.47    0.00    0.05
 1988 260    48    45    4.4    0.0    4.4   0.00   3.96    4.7    3.9    0.6    4.0   3.96   1.40    0.00    0.05
 1988 261    49    46    4.4    0.0    4.4   0.00   3.88    4.7    3.9    0.5    3.9   3.88   1.36    0.00    0.05
 1988 262    50    47    4.4    0.0    4.4   0.00   3.57    4.7    3.9    0.5    3.6   3.57   1.35    0.00    0.05
 1988 263    51    48    5.1    0.0    5.1   0.00   3.64    5.1    4.5    0.5    3.6   3.64   1.11    0.00    0.05
 1988 264    52    49    5.6    0.0    5.6   0.00   3.63    5.7    5.1    0.5    3.6   3.63   1.09    0.00    0.06
 1988 265    53    50    6.2    0.0    6.2   0.00   3.73    6.3    5.7    0.5    3.7   3.73   1.09    0.00    0.07
 1988 266    54    51    6.7    0.0    6.7   0.00   3.68    6.8    6.2    0.5    3.7   3.68   1.09    0.00    0.07
 1988 267    55    52    7.2    0.0    7.2   0.00   3.46    7.4    6.7    0.5    3.5   3.46   1.11    0.00    0.08
 1988 268    56    53    8.3    0.0    8.3   0.00   3.51    8.5    7.8    0.5    3.5   3.51   1.14    0.00    0.09
 1988 269    57    54    9.3    0.0    9.3   0.00   3.78    9.7    8.8    0.5    3.8   3.78   1.13    0.00    0.09
 1988 270    58    55    9.7    0.0    9.7   0.00   3.84   10.1    9.2    0.5    3.8   3.84   1.15    0.00    0.10
 1988 271    59    56    9.9    0.0    9.9   0.00   3.74   10.5    9.4    0.5    3.7   3.74   1.17    0.00    0.11
 1988 272    60    57   10.4    0.0   10.4   0.00   3.74   11.7    9.9    0.5    3.7   3.74   1.32    0.00    0.12
 1988 273    61    58   10.8    0.0   10.8   0.00   3.61   12.7   10.3    0.5    3.6   3.61   1.29    0.00    0.13
 1988 274    62    59   11.6    0.0   11.6   0.00   3.78   14.4   11.1    0.5    3.8   3.78   1.29    0.00    0.15
 1988 275    63    60   12.0    0.0   12.0   0.00   3.38   14.8   11.5    0.5    3.4   3.38   1.18    0.00    0.17
 1988 276    64    61   13.5    0.0   13.5   0.00   3.35   16.4   13.1    0.5    3.3   3.35   1.12    0.00    0.19
 1988 277    65    62   16.4    0.0   16.4   0.00   3.85   20.2   15.9    0.5    3.8   3.85   1.24    0.00    0.21
 1988 278    66    63   17.0    0.0   17.0   0.00   3.68   21.9   16.5    0.5    3.7   3.68   1.26    0.00    0.23
 1988 279    67    64   17.7    0.0   17.7   0.00   3.58   23.7   17.2    0.5    3.6   3.58   1.25    0.00    0.26
 1988 280    68    65   19.0    0.0   19.0   0.00   3.56   26.0   18.4    0.5    3.6   3.56   1.23    0.00    0.30
 1988 281    69    66   20.6    0.0   20.6   0.00   3.53   28.6   20.1    0.5    3.5   3.53   1.21    0.00    0.34
 1988 282    70    67   22.4    0.0   22.4   0.00   3.50   31.1   21.8    0.6    3.5   3.50   1.18    0.00    0.39
 1988 283    71    68   23.8    0.0   23.8   0.00   3.47   32.4   23.2    0.6    3.5   3.47   1.11    0.00    0.44
 1988 284    72    69   25.2    0.0   25.2   0.00   3.45   35.8   24.5    0.7    3.4   3.45   1.19    0.00    0.49
 1988 285    73    70   27.6    0.0   27.6   0.00   3.42   38.8   26.8    0.8    3.4   3.42   1.15    0.00    0.55
 1988 286    74    71   29.9    0.0   29.9   0.00   3.39   42.8   29.0    0.9    3.4   3.39   1.18    0.00    0.61
 1988 287    75    72   31.4    0.0   31.4   0.00   3.37   45.1   30.3    1.1    3.4   3.37   1.16    0.00    0.68
 1988 288    76    73   33.4    0.0   33.4   0.00   3.35   48.1   32.2    1.2    3.4   3.35   1.15    0.00    0.75
 1988 289    77    74   34.7    0.0   34.7   0.00   3.37   50.9   33.3    1.4    3.4   3.37   1.18    0.00    0.83
 1988 290    78    75   35.7    0.0   35.7   0.00   3.34   53.7   34.2    1.5    3.3   3.34   1.19    0.00    0.92
 1988 291    79    76   37.2    0.0   37.2   0.00   3.31   55.5   35.5    1.7    3.3   3.31   1.14    0.00    1.01
 1988 292    80    77   39.8    0.0   39.8   0.00   3.28   59.5   37.7    2.0    3.3   3.28   1.14    0.00    1.11
 1988 293    81    78   42.3    0.0   42.3   0.00   3.26   61.4   39.9    2.4    3.3   3.26   1.09    0.00    1.22
 1988 294    82    79   44.8    0.0   44.8   0.00   3.23   66.7   41.9    2.9    3.2   3.23   1.15    0.00    1.32
 1988 295    83    80   47.4    0.0   47.4   0.00   3.21   70.4   44.0    3.4    3.2   3.21   1.13    0.00    1.43
 1988 296    84    81   51.3    0.0   51.3   0.00   3.17   73.7   47.0    4.4    3.2   3.17   1.09    0.00    1.55
 1988 297    85    82   54.7    0.0   54.7   0.00   3.14   79.9   49.4    5.2    3.1   3.14   1.14    0.00    1.67
 1988 298    86    83   57.9    0.0   57.9   0.00   3.11   84.5   51.7    6.2    3.1   3.11   1.13    0.00    1.80
 1988 299    87    84   60.0    0.0   60.0   0.00   3.09   86.4   53.2    6.8    3.1   3.09   1.09    0.00    1.94
 1988 300    88    85   61.7    0.0   61.7   0.00   3.09   91.5   54.4    7.3    3.1   3.09   1.16    0.00    2.08
 1988 301    89    86   64.1    0.0   64.1   0.00   3.06   95.2   55.9    8.2    3.1   3.06   1.14    0.00    2.23
 1988 302    90    87   67.8    0.0   67.8   0.00   3.03  100.5   58.3    9.5    3.0   3.03   1.13    0.00    2.39
 1988 303    91    88   73.2    0.0   73.2   0.00   2.99  106.3   61.5   11.6    3.0   2.99   1.11    0.00    2.56
 1988 304    92    89   77.0    0.0   77.0   0.00   2.96  109.0   63.8   13.2    3.0   2.96   1.07    0.00    2.73
 1988 305    93    90   80.0    0.0   80.0   0.00   2.94  115.1   65.4   14.6    2.9   2.94   1.12    0.00    2.89
 1988 306    94    91   82.3    0.0   82.3   0.00   2.92  119.9   66.6   15.6    2.9   2.92   1.13    0.00    3.08
 1988 307    95    92   84.6    0.0   84.6   0.00   2.90  124.3   67.8   16.8    2.9   2.90   1.12    0.00    3.27
 1988 308    96    93   87.1    0.0   87.1   0.00   2.83  127.9   68.8   18.3    2.8   2.83   1.10    0.00    3.47
 1988 309    97    94   89.3    0.0   89.3   0.00   2.74  130.8   69.2   20.1    2.7   2.74   1.08    0.00    3.68
 1988 310    98    95   91.2    0.0   91.2   0.00   2.60  133.3   69.1   22.2    2.6   2.60   1.05    0.00    3.89
 1988 311    99    96   93.0    0.0   93.0   0.00   2.46  135.5   68.6   24.4    2.5   2.46   1.03    0.00    4.11
 1988 312   100    97   94.6    0.0   94.6   0.00   2.31  137.4   67.8   26.8    2.3   2.31   1.02    0.00    4.32
 1988 313   101    98   96.2    0.0   96.2   0.00   2.14  139.1   70.0   26.2    2.1   2.14   1.02    0.00    4.54
 1988 314   102    99   97.5    0.0   97.5   0.00   2.00  140.5   69.5   28.0    2.0   2.00   1.01    0.00    4.76
 1988 315   103   100   98.6    0.0   98.6   0.00   1.93  141.8   69.2   29.4    1.9   1.93   0.99    0.00    4.98
 1988 316   104   101   99.7    0.0   99.7   0.00   1.84  142.9   68.3   31.4    1.8   1.84   1.00    0.00    5.20
 1988 317   105   102  100.3    0.0  100.3   0.00   1.76  143.7   67.3   33.1    1.8   1.76   0.98    0.00    5.42
 1988 318   106   103  101.0    0.0  101.0   0.00   1.69  144.5   66.2   34.8    1.7   1.69   0.96    0.00    5.64
 1988 319   107   104  101.9    0.0  101.9   0.00   1.65  145.5   65.7   36.3    1.6   1.65   0.93    0.00    5.86
 1988 320   108   105  103.9    0.0  103.9   0.00   1.62  147.8   65.8   38.1    1.6   1.62   0.91    0.00    6.08
 1988 321   109   106  105.8    0.0  105.8   0.00   1.58  150.0   65.4   40.3    1.6   1.58   0.90    0.00    6.30
 1988 322   110   107  107.6    0.0  107.6   0.00   1.53  152.1   64.8   42.8    1.5   1.53   0.90    0.00    6.53
 1988 323   111   108  109.3    0.0  109.3   0.00   1.52  154.0   64.9   44.3    1.5   1.52   0.90    0.00    6.75
 1988 324   112   109  110.8    0.0  110.8   0.00   1.48  155.7   64.4   46.3    1.5   1.48   0.89    0.00    6.98
 1988 325   113   110  112.1    0.0  112.1   0.00   1.45  157.3   63.9   48.1    1.4   1.45   0.89    0.00    7.21
 1988 326   114   111  113.5    0.0  113.5   0.00   1.44  158.8   64.1   49.4    1.4   1.44   0.90    0.00    7.43
 1988 327   115   112  114.5    0.0  114.5   0.00   1.43  160.1   64.1   50.5    1.4   1.43   0.88    0.00    7.66
 1988 328   116   113  115.5    0.0  115.5   0.00   1.41  161.2   64.0   51.5    1.4   1.41   0.85    0.00    7.89
 1988 329   117   114  116.6    0.0  116.6   0.00   1.40  162.7   63.9   52.8    1.4   1.40   0.83    0.00    8.12
 1988 330   118   115  117.6    0.0  117.6   0.00   1.38  163.8   63.6   54.0    1.4   1.38   0.81    0.00    8.36
 1988 331   119   116  118.5    0.0  118.5   0.00   1.50  164.9   68.6   49.9    1.5   1.50   0.81    0.00    8.59
 1988 332   120   117  119.2    0.0  119.2   0.00   1.51  165.9   68.5   50.7    1.5   1.51   0.79    0.00    8.82
 1988 333   121   118  119.9    0.0  119.9   0.00   1.52  166.9   68.3   51.7    1.5   1.52   0.77    0.00    9.06
 1988 334   122   119  120.6    0.0  120.6   0.00   1.53  167.9   67.9   52.7    1.5   1.53   0.75    0.00    9.30
 1988 335   123   120  121.2    0.0  121.2   0.00   1.54  168.7   67.3   53.8    1.5   1.54   0.74    0.00    9.53
 1988 336   124   121  121.9    0.0  121.9   0.00   1.54  169.9   66.8   55.2    1.5   1.54   0.74    0.00    9.77
 1988 337   125   122  122.7    0.0  122.7   0.00   1.55  171.1   66.2   56.5    1.6   1.55   0.73    0.00   10.01
 1988 338   126   123  123.5    0.0  123.5   0.00   1.56  172.3   65.5   58.0    1.6   1.56   0.73    0.00   10.26
 1988 339   127   124  124.1    0.0  124.1   0.00   1.56  173.3   64.5   59.5    1.6   1.56   0.72    0.00   10.50
 1988 340   128   125  124.9    0.0  124.9   0.00   1.56  174.7   63.7   61.2    1.6   1.56   0.72    0.00   10.75
 1988 341   129   126  125.5    0.0  125.5   0.00   1.57  175.9   62.6   62.9    1.6   1.57   0.72    0.00   11.00
 1988 342   130   127  126.2    0.0  126.2   0.00   1.58  177.2   61.8   64.5    1.6   1.58   0.74    0.00   11.25
 1988 343   131   128  126.8    0.0  126.8   0.00   1.58  178.3   60.8   66.0    1.6   1.58   0.74    0.00   11.51
 1988 344   132   129  127.4    3.9  123.5   1.49   1.54  179.5   59.3   64.3    1.5   1.54   0.74    0.00   11.77
 1988 345   133   130  127.9    7.7  120.2   1.48   1.50  180.4   57.6   62.5    1.5   1.50   0.74    0.00   12.03
 1988 346   134   131  128.5   12.2  116.2   1.47   1.45  181.4   55.8   60.5    1.5   1.45   0.75    0.00   12.29
 1988 347   135   132  128.9   15.9  113.0   1.46   1.43  182.2   54.8   58.2    1.4   1.43   0.75    0.00   12.55
 1988 348   136   133  129.4   20.2  109.2   1.44   1.36  183.1   52.4   56.8    1.4   1.36   0.76    0.00   12.82
 1988 349   137   134  129.9   24.1  105.8   1.43   1.32  183.9   50.8   55.0    1.3   1.32   0.76    0.00   13.09
 1988 350   138   135  130.5   28.2  102.3   1.42   1.28  185.0   49.1   53.2    1.3   1.28   0.76    0.00   13.36
 1988 351   139   136  131.1   32.2   99.0   1.41   1.24  186.0   47.5   51.5    1.2   1.24   0.76    0.00   13.63
 1988 352   140   137  131.7   36.2   95.5   1.39   1.19  186.9   45.8   49.7    1.2   1.19   0.77    0.00   13.90
 1988 353   141   138  132.3   40.1   92.2   1.38   1.15  187.8   44.2   48.0    1.2   1.15   0.77    0.00   14.18
 1988 354   142   139  132.9   44.0   88.9   1.37   1.11  188.8   42.7   46.3    1.1   1.11   0.78    0.00   14.46
 1988 355   143   140  133.5   46.4   87.1   1.36   1.09  189.7   41.8   45.3    1.1   1.09   0.78    0.00   14.73
 1988 356   144   141  134.0   49.2   84.8   1.35   1.06  190.6   40.7   44.1    1.1   1.06   0.78    0.00   15.01
 1988 357   145   142  134.6   52.9   81.7   1.34   1.02  191.4   39.2   42.5    1.0   1.02   0.79    0.00   15.30
 1988 358   146   143  135.1   56.4   78.7   1.32   0.98  192.2   37.7   40.9    1.0   0.98   0.79    0.00   15.58
 1988 359   147   144  135.5   59.9   75.6   1.31   0.94  192.8   36.3   39.3    0.9   0.94   0.79    0.00   15.86
 1988 360   148   145  136.1   63.4   72.7   1.30   0.91  193.7   34.9   37.8    0.9   0.91   0.80    0.00   16.15
 1988 361   149   146  136.7   66.8   69.9   1.29   0.87  194.7   33.5   36.4    0.9   0.87   0.80    0.00   16.43
 1988 362   150   147  137.3   70.0   67.3   1.27   0.85  195.6   32.6   34.7    0.9   0.85   0.81    0.00   16.72
 1988 363   151   148  137.9   73.1   64.8   1.26   0.82  196.5   31.4   33.4    0.8   0.82   0.82    0.00   17.01
 1988 364   152   149  138.5   75.4   63.1   1.25   0.79  197.3   30.2   32.8    0.8   0.79   0.82    0.00   17.30
 1988 365   153   150  138.9   78.0   60.9   1.23   0.76  197.9   29.2   31.7    0.8   0.76   0.82    0.00   17.59
 1988 366   154   151  139.6   80.8   58.8   1.22   0.73  198.9   28.2   30.6    0.7   0.73   0.83    0.00   17.88
 1989 001   155   152  140.1   83.7   56.4   1.21   0.71  199.6   27.1   29.4    0.7   0.71   0.83    0.00   18.18
 1989 002   156   153  140.8   86.4   54.4   1.19   0.68  200.5   26.1   28.3    0.7   0.68   0.84    0.00   18.47
 1989 003   157   154  141.4   89.0   52.4   1.18   0.65  201.3   25.1   27.3    0.7   0.65   0.84    0.00   18.77
 1989 004   158   155  141.9   91.5   50.5   1.16   0.63  202.2   24.2   26.2    0.6   0.63   0.85    0.00   19.06
 1989 005   159   156  142.5   93.9   48.6   1.15   0.61  202.9   23.4   25.2    0.6   0.61   0.86    0.00   19.36
 1989 006   160   157  143.3   96.2   47.1   1.13   0.60  204.0   23.0   24.1    0.6   0.60   0.87    0.00   19.66
 1989 007   161   158  143.8   98.4   45.4   1.12   0.59  204.7   22.6   22.8    0.6   0.59   0.87    0.00   19.96
 1989 008   162   159  144.5  100.5   44.0   1.10   0.58  205.6   22.2   21.8    0.6   0.58   0.88    0.00   20.26
 1989 009   163   160  145.1  102.6   42.5   1.09   0.57  206.1   21.7   20.8    0.6   0.57   0.88    0.00   20.56
 1989 010   164   161  146.2  104.6   41.6   1.08   0.56  207.2   21.6   20.0    0.6   0.56   0.89    0.00   20.86
 1989 011   165   162  147.1  106.6   40.6   1.06   0.56  207.9   21.4   19.1    0.6   0.56   0.89    0.00   21.16
 1989 012   166   163  147.1  106.6   40.6   1.06   0.56  208.6   21.4   19.1    0.6   0.56   0.89    0.00   21.16
 1989 013   167   164  147.1  106.6   40.6   1.06   0.56  209.3   21.4   19.1    0.6   0.56   0.89    0.00   21.16
 1989 014   168   165  147.1  106.6   40.6   1.06   0.56  210.0   21.4   19.1    0.6   0.56   0.89    0.00   21.16

*DSSAT Cropping System Model Ver. 4.0.2.000               Aug 03, 2016; 15:38:57

*RUN   3        : UYMZ                    
 MODEL          : MZCER040 - Maize           
 EXPERIMENT     : UYMZ0133 MZ    late to create DSS                             
 TREATMENT  1   : UYMZ                    

@YEAR DOY   DAS   DAP   CNAD   GNAD   VNAD   GN%D   VN%D   NUPC   LNAD   SNAD   LN%D   SN%D   RN%D   SNN0C   SNN1C
 1989 215     3     0    0.0    0.0    0.0   0.00   0.00    0.0    0.0    0.0    0.0   0.00   0.00    0.00    0.00
 1989 216     4     1    0.0    0.0    0.0   0.00   0.00    0.0    0.0    0.0    0.0   0.00   0.00    0.00    0.00
 1989 217     5     2    0.0    0.0    0.0   0.00   0.00    0.0    0.0    0.0    0.0   0.00   0.00    0.00    0.00
 1989 218     6     3    0.0    0.0    0.0   0.00   0.00    0.0    0.0    0.0    0.0   0.00   0.00    0.00    0.00
 1989 219     7     4    0.0    0.0    0.0   0.00   0.00    0.0    0.0    0.0    0.0   0.00   0.00    0.00    0.00
 1989 220     8     5    0.0    0.0    0.0   0.00   0.00    0.0    0.0    0.0    0.0   0.00   0.00    0.00    0.00
 1989 221     9     6    0.0    0.0    0.0   0.00   0.00    0.0    0.0    0.0    0.0   0.00   0.00    0.00    0.00
 1989 222    10     7    0.0    0.0    0.0   0.00   0.00    0.0    0.0    0.0    0.0   0.00   0.00    0.00    0.00
 1989 223    11     8    0.0    0.0    0.0   0.00   0.00    0.0    0.0    0.0    0.0   0.00   0.00    0.00    0.00
 1989 224    12     9    0.0    0.0    0.0   0.00   0.00    0.0    0.0    0.0    0.0   0.00   0.00    0.00    0.00
 1989 225    13    10    0.0    0.0    0.0   0.00   0.00    0.0    0.0    0.0    0.0   0.00   0.00    0.00    0.00
 1989 226    14    11    1.2    0.0    1.2   0.00   4.40    0.0    0.6    0.6    4.4   4.40   0.00    0.00    0.00
 1989 227    15    12    1.3    0.0    1.3   0.00   4.52    0.2    0.6    0.6    4.5   4.52   1.10    0.00    0.00
 1989 228    16    13    1.3    0.0    1.3   0.00   4.49    0.2    0.6    0.6    4.5   4.49   1.12    0.00    0.00
 1989 229    17    14    1.2    0.0    1.2   0.00   4.46    0.2    0.6    0.6    4.5   4.46   1.13    0.00    0.00
 1989 230    18    15    1.2    0.0    1.2   0.00   4.43    0.2    0.6    0.6    4.4   4.43   1.15    0.00    0.00
 1989 231    19    16    1.2    0.0    1.2   0.00   4.43    0.2    0.6    0.6    4.4   4.43   1.11    0.00    0.00
 1989 232    20    17    1.2    0.0    1.2   0.00   4.43    0.2    0.6    0.6    4.4   4.43   1.07    0.00    0.00
 1989 233    21    18    1.2    0.0    1.2   0.00   4.36    0.2    0.6    0.6    4.4   4.36   1.13    0.00    0.00
 1989 234    22    19    1.2    0.0    1.2   0.00   4.36    0.2    0.6    0.6    4.4   4.36   1.22    0.00    0.00
 1989 235    23    20    1.2    0.0    1.2   0.00   4.35    0.3    0.6    0.6    4.3   4.35   1.31    0.00    0.01
 1989 236    24    21    1.2    0.0    1.2   0.00   4.34    0.3    0.6    0.6    4.3   4.34   1.22    0.00    0.01
 1989 237    25    22    1.2    0.0    1.2   0.00   4.19    0.4    0.6    0.6    4.2   4.19   1.35    0.00    0.01
 1989 238    26    23    1.2    0.0    1.2   0.00   4.04    0.4    0.7    0.6    4.0   4.04   1.19    0.00    0.01
 1989 239    27    24    1.3    0.0    1.3   0.00   4.18    0.6    0.7    0.6    4.2   4.18   1.39    0.00    0.01
 1989 240    28    25    1.4    0.0    1.4   0.00   4.07    0.7    0.8    0.6    4.1   4.07   1.26    0.00    0.02
 1989 241    29    26    1.4    0.0    1.4   0.00   3.66    0.7    0.9    0.5    3.7   3.66   1.16    0.00    0.02
 1989 242    30    27    1.7    0.0    1.7   0.00   3.85    1.0    1.1    0.5    3.9   3.85   1.14    0.00    0.02
 1989 243    31    28    1.9    0.0    1.9   0.00   4.01    1.2    1.3    0.6    4.0   4.01   1.08    0.00    0.02
 1989 244    32    29    2.0    0.0    2.0   0.00   4.02    1.4    1.4    0.6    4.0   4.02   1.22    0.00    0.03
 1989 245    33    30    2.1    0.0    2.1   0.00   4.06    1.6    1.5    0.6    4.1   4.06   1.24    0.00    0.03
 1989 246    34    31    2.2    0.0    2.2   0.00   3.77    1.7    1.6    0.5    3.8   3.77   1.16    0.00    0.03
 1989 247    35    32    2.4    0.0    2.4   0.00   3.52    2.0    1.9    0.5    3.5   3.52   1.15    0.00    0.04
 1989 248    36    33    2.9    0.0    2.9   0.00   3.85    2.4    2.3    0.5    3.8   3.85   1.12    0.00    0.04
 1989 249    37    34    3.1    0.0    3.1   0.00   3.98    2.9    2.5    0.6    4.0   3.98   1.30    0.00    0.04
 1989 250    38    35    3.2    0.0    3.2   0.00   3.92    3.2    2.7    0.5    3.9   3.92   1.29    0.00    0.05
 1989 251    39    36    3.4    0.0    3.4   0.00   3.98    3.5    2.9    0.6    4.0   3.98   1.24    0.00    0.06
 1989 252    40    37    3.6    0.0    3.6   0.00   3.77    3.6    3.0    0.5    3.8   3.77   1.16    0.00    0.06
 1989 253    41    38    3.9    0.0    3.9   0.00   3.78    4.0    3.4    0.5    3.8   3.78   1.13    0.00    0.07
 1989 254    42    39    4.2    0.0    4.2   0.00   3.72    4.3    3.7    0.5    3.7   3.72   1.08    0.00    0.08
 1989 255    43    40    4.6    0.0    4.6   0.00   3.67    4.7    4.1    0.5    3.7   3.67   1.08    0.00    0.08
 1989 256    44    41    5.1    0.0    5.1   0.00   3.75    5.2    4.6    0.5    3.8   3.75   1.09    0.00    0.09
 1989 257    45    42    5.6    0.0    5.6   0.00   3.77    5.8    5.0    0.5    3.8   3.77   1.15    0.00    0.09
 1989 258    46    43    6.0    0.0    6.0   0.00   3.86    6.7    5.4    0.5    3.9   3.86   1.35    0.00    0.10
 1989 259    47    44    6.2    0.0    6.2   0.00   3.82    7.0    5.7    0.5    3.8   3.82   1.22    0.00    0.11
 1989 260    48    45    6.6    0.0    6.6   0.00   3.77    7.9    6.1    0.5    3.8   3.77   1.28    0.00    0.12
 1989 261    49    46    7.0    0.0    7.0   0.00   3.68    8.7    6.5    0.5    3.7   3.68   1.23    0.00    0.13
 1989 262    50    47    7.6    0.0    7.6   0.00   3.51    9.6    7.1    0.5    3.5   3.51   1.20    0.00    0.15
 1989 263    51    48    8.5    0.0    8.5   0.00   3.52   11.1    8.0    0.5    3.5   3.52   1.21    0.00    0.17
 1989 264    52    49    9.5    0.0    9.5   0.00   3.48   12.5    9.1    0.5    3.5   3.48   1.19    0.00    0.18
 1989 265    53    50   10.7    0.0   10.7   0.00   3.56   13.4   10.2    0.5    3.6   3.56   1.09    0.00    0.21
 1989 266    54    51   11.8    0.0   11.8   0.00   3.68   14.6   11.2    0.5    3.7   3.68   1.11    0.00    0.22
 1989 267    55    52   12.5    0.0   12.5   0.00   3.86   15.8   11.9    0.5    3.9   3.86   1.20    0.00    0.25
 1989 268    56    53   12.6    0.0   12.6   0.00   4.15   16.8   12.0    0.6    4.2   4.15   1.35    0.00    0.27
 1989 269    57    54   12.6    0.0   12.6   0.00   4.05   16.8   12.0    0.6    4.1   4.05   1.26    0.00    0.27
 1989 270    58    55   11.8    0.0   11.8   0.00   3.73   16.8   11.3    0.5    3.7   3.73   1.32    0.00    0.30
 1989 271    59    56   12.6    0.0   12.6   0.00   3.84   17.4   12.1    0.5    3.8   3.84   1.19    0.00    0.33
 1989 272    60    57   12.8    0.0   12.8   0.00   3.71   18.4   12.2    0.5    3.7   3.71   1.23    0.00    0.36
 1989 273    61    58   13.4    0.0   13.4   0.00   3.58   19.4   12.9    0.5    3.6   3.58   1.17    0.00    0.39
 1989 274    62    59   14.9    0.0   14.9   0.00   3.54   21.2   14.4    0.5    3.5   3.54   1.14    0.00    0.43
 1989 275    63    60   16.5    0.0   16.5   0.00   3.50   22.5   16.0    0.5    3.5   3.50   1.09    0.00    0.46
 1989 276    64    61   17.8    0.0   17.8   0.00   3.47   25.5   17.3    0.6    3.5   3.47   1.19    0.00    0.50
 1989 277    65    62   19.1    0.0   19.1   0.00   3.44   27.8   18.5    0.6    3.4   3.44   1.19    0.00    0.54
 1989 278    66    63   21.0    0.0   21.0   0.00   3.41   30.5   20.3    0.7    3.4   3.41   1.17    0.00    0.59
 1989 279    67    64   22.5    0.0   22.5   0.00   3.38   32.8   21.8    0.8    3.4   3.38   1.16    0.00    0.65
 1989 280    68    65   24.4    0.0   24.4   0.00   3.35   35.2   23.4    0.9    3.4   3.35   1.13    0.00    0.70
 1989 281    69    66   25.8    0.0   25.8   0.00   3.33   37.9   24.8    1.1    3.3   3.33   1.16    0.00    0.76
 1989 282    70    67   27.2    0.0   27.2   0.00   3.31   40.9   26.0    1.2    3.3   3.31   1.17    0.00    0.83
 1989 283    71    68   29.1    0.0   29.1   0.00   3.29   43.0   27.7    1.4    3.3   3.29   1.13    0.00    0.90
 1989 284    72    69   31.3    0.0   31.3   0.00   3.26   45.3   29.6    1.7    3.3   3.26   1.10    0.00    0.98
 1989 285    73    70   32.4    0.0   32.4   0.00   3.31   47.2   30.6    1.8    3.3   3.31   1.14    0.00    1.06
 1989 286    74    71   33.1    0.0   33.1   0.00   3.27   48.6   31.2    1.9    3.3   3.27   1.14    0.00    1.14
 1989 287    75    72   34.5    0.0   34.5   0.00   3.22   51.8   32.3    2.2    3.2   3.22   1.16    0.00    1.22
 1989 288    76    73   36.7    0.0   36.7   0.00   3.20   55.1   34.1    2.6    3.2   3.20   1.15    0.00    1.31
 1989 289    77    74   38.9    0.0   38.9   0.00   3.18   59.1   35.9    3.0    3.2   3.18   1.15    0.00    1.41
 1989 290    78    75   40.8    0.0   40.8   0.00   3.16   61.1   37.4    3.4    3.2   3.16   1.11    0.00    1.51
 1989 291    79    76   43.2    0.0   43.2   0.00   3.13   64.8   39.2    4.0    3.1   3.13   1.13    0.00    1.62
 1989 292    80    77   46.5    0.0   46.5   0.00   3.10   69.7   41.6    4.9    3.1   3.10   1.13    0.00    1.73
 1989 293    81    78   50.1    0.0   50.1   0.00   3.07   74.6   44.2    5.9    3.1   3.07   1.13    0.00    1.86
 1989 294    82    79   53.9    0.0   53.9   0.00   3.03   78.2   46.8    7.1    3.0   3.03   1.09    0.00    1.98
 1989 295    83    80   57.5    0.0   57.5   0.00   3.00   84.3   49.2    8.4    3.0   3.00   1.13    0.00    2.11
 1989 296    84    81   62.0    0.0   62.0   0.00   2.97   90.0   52.0   10.1    3.0   2.97   1.12    0.00    2.25
 1989 297    85    82   64.9    0.0   64.9   0.00   2.93   91.4   53.6   11.3    2.9   2.93   1.07    0.00    2.39
 1989 298    86    83   68.5    0.0   68.5   0.00   2.91   95.0   55.7   12.8    2.9   2.91   1.07    0.00    2.53
 1989 299    87    84   71.0    0.0   71.0   0.00   2.89  100.2   57.1   14.0    2.9   2.89   1.12    0.00    2.67
 1989 300    88    85   73.0    0.0   73.0   0.00   2.87  105.0   58.1   14.9    2.9   2.87   1.14    0.00    2.82
 1989 301    89    86   76.2    0.0   76.2   0.00   2.85  109.8   59.8   16.4    2.8   2.85   1.13    0.00    2.98
 1989 302    90    87   81.0    0.0   81.0   0.00   2.82  115.7   62.2   18.8    2.8   2.82   1.12    0.00    3.16
 1989 303    91    88   85.2    0.0   85.2   0.00   2.79  118.4   64.2   20.9    2.8   2.79   1.07    0.00    3.33
 1989 304    92    89   88.1    0.0   88.1   0.00   2.76  124.5   65.6   22.6    2.8   2.76   1.11    0.00    3.51
 1989 305    93    90   93.4    0.0   93.4   0.00   2.56  129.3   70.3   23.1    2.6   2.56   1.10    0.00    3.69
 1989 306    94    91   97.7    0.0   97.7   0.00   2.56  133.1   72.8   24.9    2.6   2.56   1.09    0.00    3.88
 1989 307    95    92  100.5    0.0  100.5   0.00   2.49  135.8   73.5   27.0    2.5   2.49   1.08    0.00    4.06
 1989 308    96    93  102.7    0.0  102.7   0.00   2.38  138.3   73.0   29.7    2.4   2.38   1.05    0.00    4.24
 1989 309    97    94  104.5    0.0  104.5   0.00   2.30  140.6   72.6   31.9    2.3   2.30   1.02    0.00    4.42
 1989 310    98    95  106.2    0.0  106.2   0.00   2.22  142.6   72.1   34.1    2.2   2.22   0.99    0.00    4.60
 1989 311    99    96  107.7    0.0  107.7   0.00   2.14  144.3   71.3   36.4    2.1   2.14   1.00    0.00    4.79
 1989 312   100    97  108.9    0.0  108.9   0.00   2.05  145.8   70.2   38.7    2.1   2.05   0.98    0.00    4.98
 1989 313   101    98  110.0    0.0  110.0   0.00   1.96  147.1   69.0   41.0    2.0   1.96   0.96    0.00    5.17
 1989 314   102    99  111.0    0.0  111.0   0.00   1.88  148.3   67.6   43.4    1.9   1.88   0.94    0.00    5.35
 1989 315   103   100  112.0    0.0  112.0   0.00   1.85  149.4   67.3   44.7    1.8   1.85   0.95    0.00    5.54
 1989 316   104   101  112.9    0.0  112.9   0.00   1.82  150.3   67.0   45.9    1.8   1.82   0.95    0.00    5.73
 1989 317   105   102  113.3    0.0  113.3   0.00   1.79  150.9   66.5   46.8    1.8   1.79   0.92    0.00    5.92
 1989 318   106   103  113.7    0.0  113.7   0.00   1.75  151.4   65.8   47.9    1.7   1.75   0.89    0.00    6.12
 1989 319   107   104  115.1    0.0  115.1   0.00   1.71  153.2   65.3   49.8    1.7   1.71   0.86    0.00    6.31
 1989 320   108   105  116.6    0.0  116.6   0.00   1.69  155.0   65.2   51.3    1.7   1.69   0.84    0.00    6.50
 1989 321   109   106  117.8    0.0  117.8   0.00   1.67  156.5   65.0   52.7    1.7   1.67   0.82    0.00    6.70
 1989 322   110   107  118.9    0.0  118.9   0.00   1.63  158.0   64.5   54.4    1.6   1.63   0.80    0.00    6.89
 1989 323   111   108  120.0    0.0  120.0   0.00   1.58  159.4   63.8   56.2    1.6   1.58   0.80    0.00    7.09
 1989 324   112   109  121.1    0.0  121.1   0.00   1.54  160.8   63.2   57.9    1.5   1.54   0.80    0.00    7.29
 1989 325   113   110  122.1    0.0  122.1   0.00   1.50  162.0   62.6   59.5    1.5   1.50   0.80    0.00    7.49
 1989 326   114   111  123.1    0.0  123.1   0.00   1.63  163.3   67.6   55.5    1.6   1.63   0.79    0.00    7.69
 1989 327   115   112  123.9    0.0  123.9   0.00   1.64  164.5   67.0   57.0    1.6   1.64   0.79    0.00    7.90
 1989 328   116   113  124.6    0.0  124.6   0.00   1.64  165.5   66.4   58.2    1.6   1.64   0.77    0.00    8.10
 1989 329   117   114  125.3    0.0  125.3   0.00   1.65  166.5   65.8   59.5    1.7   1.65   0.76    0.00    8.31
 1989 330   118   115  126.1    0.0  126.1   0.00   1.66  167.8   65.2   60.9    1.7   1.66   0.76    0.00    8.52
 1989 331   119   116  126.7    0.0  126.7   0.00   1.67  168.7   64.5   62.2    1.7   1.67   0.75    0.00    8.73
 1989 332   120   117  127.2    0.0  127.2   0.00   1.67  169.7   63.8   63.4    1.7   1.67   0.74    0.00    8.94
 1989 333   121   118  127.7    0.0  127.7   0.00   1.68  170.5   62.9   64.7    1.7   1.68   0.74    0.00    9.15
 1989 334   122   119  128.2    0.0  128.2   0.00   1.68  171.6   62.0   66.2    1.7   1.68   0.73    0.00    9.37
 1989 335   123   120  128.8    0.0  128.8   0.00   1.68  172.7   60.9   67.9    1.7   1.68   0.73    0.00    9.59
 1989 336   124   121  129.3    0.0  129.3   0.00   1.69  173.9   59.7   69.6    1.7   1.69   0.75    0.00    9.81
 1989 337   125   122  129.8    0.0  129.8   0.00   1.69  175.1   58.7   71.1    1.7   1.69   0.76    0.00   10.03
 1989 338   126   123  130.3    3.6  126.7   1.61   1.65  176.1   57.3   69.4    1.7   1.65   0.76    0.00   10.26
 1989 339   127   124  130.8    8.2  122.6   1.59   1.60  177.1   55.4   67.2    1.6   1.60   0.76    0.00   10.49
 1989 340   128   125  131.6   12.8  118.7   1.58   1.55  178.5   53.7   65.1    1.5   1.55   0.77    0.00   10.72
 1989 341   129   126  132.1   17.3  114.7   1.56   1.50  179.4   51.9   62.9    1.5   1.50   0.78    0.00   10.96
 1989 342   130   127  132.7   21.8  110.9   1.55   1.45  180.5   50.1   60.8    1.4   1.45   0.78    0.00   11.19
 1989 343   131   128  133.2   26.1  107.1   1.54   1.40  181.5   48.4   58.7    1.4   1.40   0.79    0.00   11.43
 1989 344   132   129  133.8   30.5  103.3   1.53   1.35  182.5   46.7   56.6    1.3   1.35   0.79    0.00   11.68
 1989 345   133   130  134.4   34.8   99.6   1.52   1.30  183.4   45.0   54.6    1.3   1.30   0.79    0.00   11.92
 1989 346   134   131  135.0   39.1   95.9   1.51   1.25  184.3   43.3   52.5    1.2   1.25   0.79    0.00   12.16
 1989 347   135   132  135.4   43.2   92.2   1.50   1.20  185.1   41.7   50.5    1.2   1.20   0.80    0.00   12.41
 1989 348   136   133  136.1   47.2   88.9   1.49   1.16  186.3   40.2   48.7    1.2   1.16   0.80    0.00   12.66
 1989 349   137   134  136.7   51.1   85.6   1.47   1.12  187.1   38.7   46.9    1.1   1.12   0.80    0.00   12.91
 1989 350   138   135  137.4   55.0   82.4   1.46   1.07  188.2   37.2   45.2    1.1   1.07   0.80    0.00   13.16
 1989 351   139   136  137.9   57.6   80.2   1.45   1.05  189.0   36.3   44.0    1.0   1.05   0.81    0.00   13.42
 1989 352   140   137  138.3   59.7   78.6   1.44   1.02  189.7   35.5   43.1    1.0   1.02   0.81    0.00   13.67
 1989 353   141   138  138.9   62.8   76.1   1.43   0.99  190.6   34.4   41.7    1.0   0.99   0.81    0.00   13.93
 1989 354   142   139  139.5   65.6   73.9   1.41   0.96  191.5   33.4   40.5    1.0   0.96   0.81    0.00   14.19
 1989 355   143   140  140.1   68.1   72.0   1.40   0.94  192.4   32.5   39.4    0.9   0.94   0.80    0.00   14.44
 1989 356   144   141  140.6   70.9   69.7   1.39   0.91  193.2   31.5   38.2    0.9   0.91   0.80    0.00   14.70
 1989 357   145   142  141.1   74.0   67.1   1.38   0.88  194.0   30.4   36.8    0.9   0.88   0.81    0.00   14.97
 1989 358   146   143  141.7   77.1   64.6   1.36   0.84  194.9   29.2   35.4    0.8   0.84   0.81    0.00   15.23
 1989 359   147   144  142.3   80.2   62.1   1.34   0.82  195.7   28.6   33.5    0.8   0.82   0.82    0.00   15.49
 1989 360   148   145  142.8   83.2   59.7   1.33   0.79  196.5   27.5   32.2    0.8   0.79   0.82    0.00   15.76
 1989 361   149   146  143.4   86.1   57.3   1.31   0.77  197.3   26.7   30.6    0.8   0.77   0.83    0.00   16.03
 1989 362   150   147  143.9   88.9   55.0   1.30   0.74  198.1   25.6   29.4    0.7   0.74   0.84    0.00   16.29
 1989 363   151   148  144.4   91.7   52.8   1.28   0.71  198.9   24.8   28.0    0.7   0.71   0.85    0.00   16.56
 1989 364   152   149  144.8   94.3   50.6   1.27   0.69  199.5   23.9   26.7    0.7   0.69   0.85    0.00   16.83
 1989 365   153   150  145.5   96.8   48.7   1.25   0.66  200.4   23.0   25.7    0.7   0.66   0.86    0.00   17.10
 1990 001   154   151  146.1   99.0   47.1   1.24   0.64  201.1   22.2   24.9    0.6   0.64   0.87    0.00   17.38
 1990 002   155   152  146.7  101.3   45.4   1.22   0.62  202.0   21.4   24.0    0.6   0.62   0.88    0.00   17.65
 1990 003   156   153  147.3  103.5   43.7   1.20   0.60  202.7   20.7   23.1    0.6   0.60   0.88    0.00   17.92
 1990 004   157   154  147.8  105.6   42.2   1.19   0.58  203.5   20.0   22.2    0.6   0.58   0.89    0.00   18.20
 1990 005   158   155  148.6  107.7   40.9   1.17   0.56  204.2   19.5   21.4    0.6   0.56   0.89    0.00   18.47
 1990 006   159   156  149.7  109.6   40.1   1.16   0.56  205.1   19.3   20.8    0.6   0.56   0.89    0.00   18.74
 1990 007   160   157  150.9  111.5   39.3   1.14   0.55  206.0   19.2   20.1    0.6   0.55   0.89    0.00   19.02
 1990 008   161   158  150.9  111.5   39.3   1.14   0.55  206.8   19.2   20.1    0.6   0.55   0.89    0.00   19.02
 1990 009   162   159  150.9  111.5   39.3   1.14   0.55  207.7   19.2   20.1    0.6   0.55   0.89    0.00   19.02
 1990 010   163   160  150.9  111.5   39.3   1.14   0.55  208.5   19.2   20.1    0.6   0.55   0.89    0.00   19.02

*DSSAT Cropping System Model Ver. 4.0.2.000               Aug 03, 2016; 15:38:57

*RUN   4        : UYMZ                    
 MODEL          : MZCER040 - Maize           
 EXPERIMENT     : UYMZ0133 MZ    late to create DSS                             
 TREATMENT  1   : UYMZ                    

@YEAR DOY   DAS   DAP   CNAD   GNAD   VNAD   GN%D   VN%D   NUPC   LNAD   SNAD   LN%D   SN%D   RN%D   SNN0C   SNN1C
 1990 215     3     0    0.0    0.0    0.0   0.00   0.00    0.0    0.0    0.0    0.0   0.00   0.00    0.00    0.00
 1990 216     4     1    0.0    0.0    0.0   0.00   0.00    0.0    0.0    0.0    0.0   0.00   0.00    0.00    0.00
 1990 217     5     2    0.0    0.0    0.0   0.00   0.00    0.0    0.0    0.0    0.0   0.00   0.00    0.00    0.00
 1990 218     6     3    0.0    0.0    0.0   0.00   0.00    0.0    0.0    0.0    0.0   0.00   0.00    0.00    0.00
 1990 219     7     4    0.0    0.0    0.0   0.00   0.00    0.0    0.0    0.0    0.0   0.00   0.00    0.00    0.00
 1990 220     8     5    0.0    0.0    0.0   0.00   0.00    0.0    0.0    0.0    0.0   0.00   0.00    0.00    0.00
 1990 221     9     6    0.0    0.0    0.0   0.00   0.00    0.0    0.0    0.0    0.0   0.00   0.00    0.00    0.00
 1990 222    10     7    1.2    0.0    1.2   0.00   4.40    0.0    0.6    0.6    4.4   4.40   0.00    0.00    0.00
 1990 223    11     8    1.3    0.0    1.3   0.00   4.53    0.2    0.6    0.6    4.5   4.53   1.09    0.00    0.00
 1990 224    12     9    1.3    0.0    1.3   0.00   4.50    0.2    0.6    0.6    4.5   4.50   1.12    0.00    0.00
 1990 225    13    10    1.2    0.0    1.2   0.00   4.46    0.2    0.6    0.6    4.5   4.46   1.14    0.00    0.00
 1990 226    14    11    1.2    0.0    1.2   0.00   4.46    0.2    0.6    0.6    4.5   4.46   1.11    0.00    0.00
 1990 227    15    12    1.2    0.0    1.2   0.00   4.42    0.2    0.6    0.6    4.4   4.42   1.15    0.00    0.00
 1990 228    16    13    1.2    0.0    1.2   0.00   4.40    0.2    0.6    0.6    4.4   4.40   1.20    0.00    0.00
 1990 229    17    14    1.2    0.0    1.2   0.00   4.38    0.3    0.6    0.6    4.4   4.38   1.21    0.00    0.00
 1990 230    18    15    1.2    0.0    1.2   0.00   4.37    0.3    0.6    0.6    4.4   4.37   1.23    0.00    0.01
 1990 231    19    16    1.2    0.0    1.2   0.00   4.35    0.4    0.6    0.6    4.3   4.35   1.21    0.00    0.01
 1990 232    20    17    1.2    0.0    1.2   0.00   3.87    0.4    0.7    0.5    3.9   3.87   1.22    0.00    0.01
 1990 233    21    18    1.4    0.0    1.4   0.00   3.86    0.6    0.8    0.5    3.9   3.86   1.21    0.00    0.01
 1990 234    22    19    1.5    0.0    1.5   0.00   3.90    0.8    1.0    0.5    3.9   3.90   1.20    0.00    0.01
 1990 235    23    20    1.7    0.0    1.7   0.00   4.10    1.1    1.1    0.6    4.1   4.10   1.33    0.00    0.02
 1990 236    24    21    1.7    0.0    1.7   0.00   4.05    1.2    1.2    0.6    4.1   4.05   1.20    0.00    0.02
 1990 237    25    22    1.8    0.0    1.8   0.00   3.63    1.3    1.3    0.5    3.6   3.63   1.15    0.00    0.02
 1990 238    26    23    2.1    0.0    2.1   0.00   3.53    1.7    1.6    0.5    3.5   3.53   1.19    0.00    0.03
 1990 239    27    24    2.5    0.0    2.5   0.00   4.00    2.1    2.0    0.6    4.0   4.00   1.14    0.00    0.03
 1990 240    28    25    2.7    0.0    2.7   0.00   4.22    2.6    2.1    0.6    4.2   4.22   1.56    0.00    0.04
 1990 241    29    26    2.7    0.0    2.7   0.00   4.14    2.6    2.1    0.6    4.1   4.14   1.44    0.00    0.04
 1990 242    30    27    2.7    0.0    2.7   0.00   3.84    2.6    2.1    0.5    3.8   3.84   1.37    0.00    0.04
 1990 243    31    28    2.9    0.0    2.9   0.00   4.16    2.6    2.3    0.6    4.2   4.16   1.09    0.00    0.04
 1990 244    32    29    3.0    0.0    3.0   0.00   4.20    2.7    2.4    0.6    4.2   4.20   1.16    0.00    0.05
 1990 245    33    30    2.9    0.0    2.9   0.00   4.19    2.7    2.4    0.6    4.2   4.19   1.18    0.00    0.05
 1990 246    34    31    2.9    0.0    2.9   0.00   4.01    2.7    2.4    0.6    4.0   4.01   1.18    0.00    0.05
 1990 247    35    32    3.1    0.0    3.1   0.00   3.97    2.8    2.5    0.6    4.0   3.97   1.07    0.00    0.06
 1990 248    36    33    3.2    0.0    3.2   0.00   3.72    2.9    2.7    0.5    3.7   3.72   1.07    0.00    0.06
 1990 249    37    34    3.6    0.0    3.6   0.00   4.04    3.3    3.0    0.6    4.0   4.04   1.07    0.00    0.07
 1990 250    38    35    3.7    0.0    3.7   0.00   3.98    3.4    3.1    0.6    4.0   3.98   1.08    0.00    0.07
 1990 251    39    36    3.8    0.0    3.8   0.00   4.00    3.5    3.3    0.6    4.0   4.00   1.08    0.00    0.08
 1990 252    40    37    3.9    0.0    3.9   0.00   3.45    3.7    3.4    0.5    3.4   3.45   1.11    0.00    0.08
 1990 253    41    38    4.6    0.0    4.6   0.00   3.51    4.4    4.1    0.5    3.5   3.51   1.10    0.00    0.08
 1990 254    42    39    5.4    0.0    5.4   0.00   3.59    5.2    4.8    0.5    3.6   3.59   1.10    0.00    0.09
 1990 255    43    40    6.0    0.0    6.0   0.00   3.68    6.0    5.5    0.5    3.7   3.68   1.23    0.00    0.10
 1990 256    44    41    6.6    0.0    6.6   0.00   4.01    7.0    6.1    0.6    4.0   4.01   1.47    0.00    0.10
 1990 257    45    42    6.7    0.0    6.7   0.00   3.96    7.1    6.1    0.6    4.0   3.96   1.40    0.00    0.11
 1990 258    46    43    6.8    0.0    6.8   0.00   3.84    7.2    6.3    0.5    3.8   3.84   1.22    0.00    0.12
 1990 259    47    44    7.1    0.0    7.1   0.00   3.67    7.5    6.6    0.5    3.7   3.67   1.14    0.00    0.13
 1990 260    48    45    7.8    0.0    7.8   0.00   3.72    8.2    7.3    0.5    3.7   3.72   1.11    0.00    0.13
 1990 261    49    46    8.3    0.0    8.3   0.00   3.70    8.8    7.8    0.5    3.7   3.70   1.10    0.00    0.14
 1990 262    50    47    9.0    0.0    9.0   0.00   3.71    9.6    8.4    0.5    3.7   3.71   1.16    0.00    0.15
 1990 263    51    48    9.5    0.0    9.5   0.00   3.71   10.1    9.0    0.5    3.7   3.71   1.08    0.00    0.16
 1990 264    52    49   10.1    0.0   10.1   0.00   3.65   10.7    9.6    0.5    3.6   3.65   1.09    0.00    0.17
 1990 265    53    50   10.9    0.0   10.9   0.00   3.38   12.0   10.4    0.5    3.4   3.38   1.22    0.00    0.18
 1990 266    54    51   12.6    0.0   12.6   0.00   3.83   14.3   12.0    0.5    3.8   3.83   1.38    0.00    0.19
 1990 267    55    52   12.8    0.0   12.8   0.00   3.81   15.0   12.3    0.5    3.8   3.81   1.40    0.00    0.20
 1990 268    56    53   13.1    0.0   13.1   0.00   3.78   15.6   12.6    0.5    3.8   3.78   1.34    0.00    0.22
 1990 269    57    54   13.4    0.0   13.4   0.00   3.91   16.4   12.9    0.5    3.9   3.91   1.26    0.00    0.24
 1990 270    58    55   13.4    0.0   13.4   0.00   3.50   16.5   12.9    0.5    3.5   3.50   1.18    0.00    0.26
 1990 271    59    56   14.6    0.0   14.6   0.00   3.55   17.5   14.1    0.5    3.5   3.55   1.08    0.00    0.28
 1990 272    60    57   17.2    0.0   17.2   0.00   3.78   20.9   16.7    0.5    3.8   3.78   1.18    0.00    0.30
 1990 273    61    58   18.5    0.0   18.5   0.00   3.68   22.8   18.0    0.5    3.7   3.68   1.18    0.00    0.33
 1990 274    62    59   20.4    0.0   20.4   0.00   3.56   25.3   19.9    0.5    3.6   3.56   1.18    0.00    0.35
 1990 275    63    60   22.1    0.0   22.1   0.00   3.53   28.3   21.6    0.5    3.5   3.53   1.22    0.00    0.38
 1990 276    64    61   24.4    0.0   24.4   0.00   3.49   31.1   23.8    0.6    3.5   3.49   1.18    0.00    0.42
 1990 277    65    62   28.4    0.0   28.4   0.00   3.45   35.0   27.6    0.8    3.4   3.45   1.12    0.00    0.46
 1990 278    66    63   30.7    0.0   30.7   0.00   3.41   37.0   29.7    0.9    3.4   3.41   1.07    0.00    0.50
 1990 279    67    64   33.8    0.0   33.8   0.00   3.38   40.2   32.6    1.2    3.4   3.38   1.08    0.00    0.54
 1990 280    68    65   36.3    0.0   36.3   0.00   3.34   42.7   34.8    1.5    3.3   3.34   1.07    0.00    0.58
 1990 281    69    66   38.5    0.0   38.5   0.00   3.31   45.7   36.8    1.7    3.3   3.31   1.13    0.00    0.61
 1990 282    70    67   40.7    0.0   40.7   0.00   3.29   50.2   38.6    2.1    3.3   3.29   1.23    0.00    0.66
 1990 283    71    68   43.2    0.0   43.2   0.00   3.26   53.7   40.7    2.5    3.3   3.26   1.19    0.00    0.71
 1990 284    72    69   46.2    0.0   46.2   0.00   3.23   55.7   43.1    3.0    3.2   3.23   1.08    0.00    0.77
 1990 285    73    70   48.3    0.0   48.3   0.00   3.21   61.1   44.8    3.5    3.2   3.21   1.22    0.00    0.82
 1990 286    74    71   50.3    0.0   50.3   0.00   3.19   65.0   46.4    3.9    3.2   3.19   1.21    0.00    0.89
 1990 287    75    72   53.1    0.0   53.1   0.00   3.17   69.1   48.5    4.6    3.2   3.17   1.18    0.00    0.97
 1990 288    76    73   55.1    0.0   55.1   0.00   3.15   73.2   50.0    5.1    3.1   3.15   1.18    0.00    1.06
 1990 289    77    74   56.8    0.0   56.8   0.00   3.13   77.0   51.2    5.6    3.1   3.13   1.18    0.00    1.15
 1990 290    78    75   59.2    0.0   59.2   0.00   3.11   79.0   52.9    6.3    3.1   3.11   1.11    0.00    1.26
 1990 291    79    76   63.0    0.0   63.0   0.00   3.08   84.8   55.5    7.5    3.1   3.08   1.14    0.00    1.36
 1990 292    80    77   67.1    0.0   67.1   0.00   3.05   88.8   58.2    9.0    3.1   3.05   1.10    0.00    1.48
 1990 293    81    78   71.3    0.0   71.3   0.00   3.02   93.5   60.8   10.6    3.0   3.02   1.10    0.00    1.59
 1990 294    82    79   75.5    0.0   75.5   0.00   2.99   99.4   63.2   12.3    3.0   2.99   1.12    0.00    1.71
 1990 295    83    80   79.7    0.0   79.7   0.00   2.96  105.7   65.7   14.1    3.0   2.96   1.14    0.00    1.83
 1990 296    84    81   84.3    0.0   84.3   0.00   2.93  110.6   68.1   16.2    2.9   2.93   1.11    0.00    1.97
 1990 297    85    82   88.3    0.0   88.3   0.00   2.90  115.7   70.2   18.1    2.9   2.90   1.11    0.00    2.10
 1990 298    86    83   92.6    0.0   92.6   0.00   2.87  119.6   72.3   20.3    2.9   2.87   1.08    0.00    2.25
 1990 299    87    84   96.5    0.0   96.5   0.00   2.77  124.7   73.6   23.0    2.8   2.77   1.09    0.00    2.39
 1990 300    88    85  100.5    0.0  100.5   0.00   2.67  128.8   74.6   26.0    2.7   2.67   1.08    0.00    2.53
 1990 301    89    86  104.0    0.0  104.0   0.00   2.65  132.1   76.1   28.0    2.7   2.65   1.07    0.00    2.68
 1990 302    90    87  106.8    0.0  106.8   0.00   2.59  134.9   78.7   28.2    2.6   2.59   1.07    0.00    2.82
 1990 303    91    88  109.1    0.0  109.1   0.00   2.38  137.2   77.7   31.4    2.4   2.38   1.07    0.00    2.97
 1990 304    92    89  110.9    0.0  110.9   0.00   2.26  139.2   77.0   33.9    2.3   2.26   1.04    0.00    3.11
 1990 305    93    90  112.6    0.0  112.6   0.00   2.15  141.0   76.1   36.5    2.2   2.15   1.03    0.00    3.26
 1990 306    94    91  114.0    0.0  114.0   0.00   2.06  142.4   75.1   38.9    2.1   2.06   1.02    0.00    3.40
 1990 307    95    92  115.3    0.0  115.3   0.00   2.01  143.9   74.6   40.7    2.0   2.01   1.02    0.00    3.55
 1990 308    96    93  116.4    0.0  116.4   0.00   1.97  145.1   74.1   42.3    2.0   1.97   0.99    0.00    3.70
 1990 309    97    94  118.0    0.0  118.0   0.00   1.96  147.0   74.5   43.5    2.0   1.96   0.94    0.00    3.85
 1990 310    98    95  119.7    0.0  119.7   0.00   1.94  149.0   74.6   45.1    1.9   1.94   0.92    0.00    4.00
 1990 311    99    96  121.2    0.0  121.2   0.00   1.90  150.7   74.1   47.0    1.9   1.90   0.90    0.00    4.15
 1990 312   100    97  122.4    0.0  122.4   0.00   1.87  152.1   74.0   48.4    1.9   1.87   0.91    0.00    4.30
 1990 313   101    98  123.6    0.0  123.6   0.00   1.83  153.5   73.4   50.1    1.8   1.83   0.91    0.00    4.45
 1990 314   102    99  124.6    0.0  124.6   0.00   1.79  154.7   72.8   51.8    1.8   1.79   0.89    0.00    4.60
 1990 315   103   100  125.6    0.0  125.6   0.00   1.74  155.8   71.9   53.7    1.7   1.74   0.87    0.00    4.76
 1990 316   104   101  126.5    0.0  126.5   0.00   1.70  156.9   71.3   55.2    1.7   1.70   0.88    0.00    4.91
 1990 317   105   102  127.4    0.0  127.4   0.00   1.64  157.9   70.1   57.3    1.6   1.64   0.87    0.00    5.07
 1990 318   106   103  128.4    0.0  128.4   0.00   1.59  159.0   69.3   59.0    1.6   1.59   0.87    0.00    5.23
 1990 319   107   104  129.3    0.0  129.3   0.00   1.58  160.1   69.2   60.1    1.6   1.58   0.88    0.00    5.38
 1990 320   108   105  130.1    0.0  130.1   0.00   1.56  161.0   68.9   61.2    1.6   1.56   0.87    0.00    5.54
 1990 321   109   106  130.7    0.0  130.7   0.00   1.53  161.7   68.5   62.2    1.5   1.53   0.83    0.00    5.70
 1990 322   110   107  131.5    0.0  131.5   0.00   1.67  162.7   73.9   57.7    1.7   1.67   0.81    0.00    5.86
 1990 323   111   108  132.3    0.0  132.3   0.00   1.67  163.7   73.0   59.3    1.7   1.67   0.80    0.00    6.01
 1990 324   112   109  133.1    0.0  133.1   0.00   1.67  164.7   72.5   60.6    1.7   1.67   0.81    0.00    6.18
 1990 325   113   110  133.7    0.0  133.7   0.00   1.68  165.6   71.6   62.1    1.7   1.68   0.79    0.00    6.34
 1990 326   114   111  134.6    0.0  134.6   0.00   1.68  166.8   71.0   63.6    1.7   1.68   0.78    0.00    6.50
 1990 327   115   112  135.4    0.0  135.4   0.00   1.69  168.1   70.2   65.2    1.7   1.69   0.76    0.00    6.66
 1990 328   116   113  136.2    0.0  136.2   0.00   1.70  169.3   69.4   66.8    1.7   1.70   0.76    0.00    6.83
 1990 329   117   114  136.9    0.0  136.9   0.00   1.70  170.5   68.4   68.5    1.7   1.70   0.76    0.00    7.00
 1990 330   118   115  137.5    0.0  137.5   0.00   1.71  171.6   67.5   70.0    1.7   1.71   0.76    0.00    7.17
 1990 331   119   116  137.9    0.0  137.9   0.00   1.72  172.5   66.7   71.2    1.7   1.72   0.74    0.00    7.34
 1990 332   120   117  138.4    0.0  138.4   0.00   1.73  173.6   65.8   72.5    1.7   1.73   0.72    0.00    7.52
 1990 333   121   118  138.7    0.0  138.7   0.00   1.74  174.6   64.7   74.0    1.7   1.74   0.71    0.00    7.70
 1990 334   122   119  139.1    4.5  134.6   1.64   1.69  175.5   62.8   71.8    1.7   1.69   0.72    0.00    7.88
 1990 335   123   120  139.5    8.8  130.8   1.62   1.64  176.4   61.0   69.7    1.6   1.64   0.73    0.00    8.06
 1990 336   124   121  140.0   12.2  127.7   1.60   1.61  177.2   60.0   67.8    1.6   1.61   0.74    0.00    8.25
 1990 337   125   122  140.4   15.0  125.4   1.59   1.57  178.1   58.5   66.9    1.6   1.57   0.74    0.00    8.44
 1990 338   126   123  140.8   18.6  122.2   1.59   1.53  178.8   57.0   65.2    1.5   1.53   0.73    0.00    8.63
 1990 339   127   124  141.3   23.6  117.7   1.58   1.48  179.7   55.0   62.8    1.5   1.48   0.75    0.00    8.82
 1990 340   128   125  141.8   27.9  113.9   1.57   1.43  180.5   53.1   60.7    1.4   1.43   0.75    0.00    9.01
 1990 341   129   126  142.2   31.9  110.3   1.55   1.38  181.2   51.5   58.8    1.4   1.38   0.75    0.00    9.21
 1990 342   130   127  142.6   34.9  107.7   1.54   1.35  181.9   50.3   57.4    1.4   1.35   0.75    0.00    9.40
 1990 343   131   128  143.1   37.4  105.7   1.53   1.33  182.7   49.4   56.3    1.3   1.33   0.76    0.00    9.60
 1990 344   132   129  143.3   40.1  103.2   1.52   1.30  183.1   48.4   54.8    1.3   1.30   0.77    0.00    9.80
 1990 345   133   130  143.6   43.5  100.1   1.51   1.26  183.6   46.7   53.4    1.3   1.26   0.77    0.00   10.00
 1990 346   134   131  143.9   45.6   98.3   1.50   1.23  184.1   45.9   52.4    1.2   1.23   0.77    0.00   10.20
 1990 347   135   132  144.4   48.7   95.6   1.49   1.20  184.8   44.6   51.0    1.2   1.20   0.77    0.00   10.40
 1990 348   136   133  144.8   50.7   94.1   1.48   1.18  185.5   43.9   50.2    1.2   1.18   0.77    0.00   10.61
 1990 349   137   134  145.4   53.7   91.7   1.47   1.15  186.3   42.8   48.9    1.2   1.15   0.77    0.00   10.81
 1990 350   138   135  145.9   57.6   88.3   1.46   1.11  187.1   41.2   47.1    1.1   1.11   0.77    0.00   11.02
 1990 351   139   136  146.4   61.6   84.9   1.44   1.07  188.0   40.0   44.9    1.1   1.07   0.78    0.00   11.22
 1990 352   140   137  147.0   65.1   81.9   1.43   1.03  188.7   38.2   43.6    1.0   1.03   0.78    0.00   11.43
 1990 353   141   138  147.3   68.1   79.2   1.42   0.99  189.3   37.0   42.2    1.0   0.99   0.78    0.00   11.64
 1990 354   142   139  147.9   71.2   76.7   1.40   0.96  190.2   35.8   40.9    1.0   0.96   0.78    0.00   11.85
 1990 355   143   140  148.6   74.8   73.8   1.39   0.93  191.1   34.5   39.4    0.9   0.93   0.78    0.00   12.06
 1990 356   144   141  149.1   78.2   70.9   1.37   0.91  191.9   33.8   37.2    0.9   0.91   0.79    0.00   12.28
 1990 357   145   142  149.5   81.5   68.0   1.35   0.87  192.4   32.4   35.6    0.9   0.87   0.79    0.00   12.49
 1990 358   146   143  149.9   84.1   65.8   1.34   0.85  193.0   31.6   34.2    0.8   0.85   0.80    0.00   12.70
 1990 359   147   144  150.3   86.5   63.9   1.33   0.81  193.6   30.3   33.6    0.8   0.81   0.80    0.00   12.92
 1990 360   148   145  151.1   89.6   61.5   1.31   0.78  194.7   28.9   32.6    0.8   0.78   0.81    0.00   13.14
 1990 361   149   146  151.8   92.6   59.2   1.30   0.74  195.6   27.6   31.5    0.7   0.74   0.81    0.00   13.35
 1990 362   150   147  152.6   94.2   58.4   1.29   0.73  196.7   27.2   31.1    0.7   0.73   0.81    0.00   13.57
 1990 363   151   148  153.2   95.6   57.6   1.28   0.72  197.6   26.9   30.7    0.7   0.72   0.81    0.00   13.79
 1990 364   152   149  153.9   97.7   56.2   1.27   0.71  198.4   26.2   30.0    0.7   0.71   0.82    0.00   14.01
 1990 365   153   150  154.5  100.3   54.3   1.25   0.68  199.3   25.3   28.9    0.7   0.68   0.82    0.00   14.23
 1991 001   154   151  155.2  102.8   52.3   1.23   0.66  200.1   24.6   27.7    0.7   0.66   0.83    0.00   14.46
 1991 002   155   152  155.8  105.3   50.4   1.22   0.64  201.0   24.0   26.5    0.6   0.64   0.84    0.00   14.68
 1991 003   156   153  156.4  107.7   48.7   1.20   0.63  201.8   23.3   25.4    0.6   0.63   0.84    0.00   14.91
 1991 004   157   154  157.1  109.8   47.3   1.19   0.61  202.7   22.7   24.6    0.6   0.61   0.85    0.00   15.13
 1991 005   158   155  157.8  111.8   46.0   1.17   0.59  203.5   22.1   23.9    0.6   0.59   0.86    0.00   15.36
 1991 006   159   156  158.4  113.8   44.6   1.16   0.58  204.4   21.6   23.1    0.6   0.58   0.87    0.00   15.59
 1991 007   160   157  159.3  115.9   43.4   1.14   0.57  205.2   21.3   22.2    0.6   0.57   0.87    0.00   15.81
 1991 008   161   158  160.3  118.0   42.4   1.13   0.57  205.9   21.0   21.3    0.6   0.57   0.87    0.00   16.04
 1991 009   162   159  161.3  120.0   41.4   1.11   0.57  206.6   21.3   20.1    0.6   0.57   0.86    0.00   16.26
 1991 010   163   160  162.5  122.0   40.5   1.10   0.57  207.5   21.2   19.3    0.6   0.57   0.86    0.00   16.48
 1991 011   164   161  162.5  122.0   40.5   1.10   0.57  208.5   21.2   19.3    0.6   0.57   0.86    0.00   16.48
 1991 012   165   162  162.5  122.0   40.5   1.10   0.57  209.4   21.2   19.3    0.6   0.57   0.86    0.00   16.48
 1991 013   166   163  162.5  122.0   40.5   1.10   0.57  210.3   21.2   19.3    0.6   0.57   0.86    0.00   16.48
 1991 014   167   164  162.5  122.0   40.5   1.10   0.57  211.2   21.2   19.3    0.6   0.57   0.86    0.00   16.48

*DSSAT Cropping System Model Ver. 4.0.2.000               Aug 03, 2016; 15:38:57

*RUN   5        : UYMZ                    
 MODEL          : MZCER040 - Maize           
 EXPERIMENT     : UYMZ0133 MZ    late to create DSS                             
 TREATMENT  1   : UYMZ                    

@YEAR DOY   DAS   DAP   CNAD   GNAD   VNAD   GN%D   VN%D   NUPC   LNAD   SNAD   LN%D   SN%D   RN%D   SNN0C   SNN1C
 1991 215     3     0    0.0    0.0    0.0   0.00   0.00    0.0    0.0    0.0    0.0   0.00   0.00    0.00    0.00
 1991 216     4     1    0.0    0.0    0.0   0.00   0.00    0.0    0.0    0.0    0.0   0.00   0.00    0.00    0.00
 1991 217     5     2    0.0    0.0    0.0   0.00   0.00    0.0    0.0    0.0    0.0   0.00   0.00    0.00    0.00
 1991 218     6     3    0.0    0.0    0.0   0.00   0.00    0.0    0.0    0.0    0.0   0.00   0.00    0.00    0.00
 1991 219     7     4    0.0    0.0    0.0   0.00   0.00    0.0    0.0    0.0    0.0   0.00   0.00    0.00    0.00
 1991 220     8     5    0.0    0.0    0.0   0.00   0.00    0.0    0.0    0.0    0.0   0.00   0.00    0.00    0.00
 1991 221     9     6    0.0    0.0    0.0   0.00   0.00    0.0    0.0    0.0    0.0   0.00   0.00    0.00    0.00
 1991 222    10     7    0.0    0.0    0.0   0.00   0.00    0.0    0.0    0.0    0.0   0.00   0.00    0.00    0.00
 1991 223    11     8    0.0    0.0    0.0   0.00   0.00    0.0    0.0    0.0    0.0   0.00   0.00    0.00    0.00
[...]

*DSSAT Cropping System Model Ver. 4.0.2.000               Aug 03, 2016; 15:38:57

*RUN   6        : UYMZ                    
 MODEL          : MZCER040 - Maize           
 EXPERIMENT     : UYMZ0133 MZ    late to create DSS                             
 TREATMENT  1   : UYMZ                    

@YEAR DOY   DAS   DAP   CNAD   GNAD   VNAD   GN%D   VN%D   NUPC   LNAD   SNAD   LN%D   SN%D   RN%D   SNN0C   SNN1C
 1992 215     3     0    0.0    0.0    0.0   0.00   0.00    0.0    0.0    0.0    0.0   0.00   0.00    0.00    0.00
 1992 216     4     1    0.0    0.0    0.0   0.00   0.00    0.0    0.0    0.0    0.0   0.00   0.00    0.00    0.00
 1992 217     5     2    0.0    0.0    0.0   0.00   0.00    0.0    0.0    0.0    0.0   0.00   0.00    0.00    0.00
 1992 218     6     3    0.0    0.0    0.0   0.00   0.00    0.0    0.0    0.0    0.0   0.00   0.00    0.00    0.00
 1992 219     7     4    0.0    0.0    0.0   0.00   0.00    0.0    0.0    0.0    0.0   0.00   0.00    0.00    0.00
 1992 220     8     5    0.0    0.0    0.0   0.00   0.00    0.0    0.0    0.0    0.0   0.00   0.00    0.00    0.00
 1992 221     9     6    0.0    0.0    0.0   0.00   0.00    0.0    0.0    0.0    0.0   0.00   0.00    0.00    0.00
 1992 222    10     7    0.0    0.0    0.0   0.00   0.00    0.0    0.0    0.0    0.0   0.00   0.00    0.00    0.00
 1992 223    11     8    0.0    0.0    0.0   0.00   0.00    0.0    0.0    0.0    0.0   0.00   0.00    0.00    0.00
 1992 224    12     9    0.0    0.0    0.0   0.00   0.00    0.0    0.0    0.0    0.0   0.00   0.00    0.00    0.00
 1992 225    13    10    0.0    0.0    0.0   0.00   0.00    0.0    0.0    0.0    0.0   0.00   0.00    0.00    0.00
 1992 226    14    11    0.0    0.0    0.0   0.00   0.00    0.0    0.0    0.0    0.0   0.00   0.00    0.00    0.00
 1992 227    15    12    0.0    0.0    0.0   0.00   0.00    0.0    0.0    0.0    0.0   0.00   0.00    0.00    0.00
 1992 228    16    13    0.0    0.0    0.0   0.00   0.00    0.0    0.0    0.0    0.0   0.00   0.00    0.00    0.00
 1992 229    17    14    0.0    0.0    0.0   0.00   0.00    0.0    0.0    0.0    0.0   0.00   0.00    0.00    0.00
 1992 230    18    15    0.0    0.0    0.0   0.00   0.00    0.0    0.0    0.0    0.0   0.00   0.00    0.00    0.00
 1992 231    19    16    1.2    0.0    1.2   0.00   4.40    0.0    0.6    0.6    4.4   4.40   0.00    0.00    0.00
 1992 232    20    17    1.3    0.0    1.3   0.00   4.54    0.2    0.6    0.6    4.5   4.54   1.08    0.00    0.00
 1992 233    21    18    1.3    0.0    1.3   0.00   4.53    0.2    0.6    0.6    4.5   4.53   1.10    0.00    0.00
 1992 234    22    19    1.3    0.0    1.3   0.00   4.50    0.2    0.6    0.6    4.5   4.50   1.11    0.00    0.00
 1992 235    23    20    1.3    0.0    1.3   0.00   4.50    0.2    0.6    0.6    4.5   4.50   1.08    0.00    0.00
 1992 236    24    21    1.2    0.0    1.2   0.00   4.46    0.2    0.6    0.6    4.5   4.46   1.15    0.00    0.00
 1992 237    25    22    1.2    0.0    1.2   0.00   4.44    0.2    0.6    0.6    4.4   4.44   1.17    0.00    0.00
 1992 238    26    23    1.2    0.0    1.2   0.00   4.43    0.3    0.6    0.6    4.4   4.43   1.18    0.00    0.00
 1992 239    27    24    1.2    0.0    1.2   0.00   4.41    0.3    0.6    0.6    4.4   4.41   1.18    0.00    0.01
 1992 240    28    25    1.2    0.0    1.2   0.00   4.39    0.3    0.6    0.6    4.4   4.39   1.18    0.00    0.01
 1992 241    29    26    1.2    0.0    1.2   0.00   4.37    0.3    0.6    0.6    4.4   4.37   1.15    0.00    0.01
 1992 242    30    27    1.2    0.0    1.2   0.00   4.34    0.4    0.6    0.6    4.3   4.34   1.19    0.00    0.01
 1992 243    31    28    1.2    0.0    1.2   0.00   3.98    0.4    0.7    0.6    4.0   3.98   1.17    0.00    0.01
 1992 244    32    29    1.3    0.0    1.3   0.00   4.05    0.5    0.8    0.6    4.0   4.05   1.15    0.00    0.01
 1992 245    33    30    1.4    0.0    1.4   0.00   4.11    0.6    0.8    0.6    4.1   4.11   1.18    0.00    0.01
 1992 246    34    31    1.5    0.0    1.5   0.00   4.03    0.6    0.9    0.6    4.0   4.03   1.13    0.00    0.02
 1992 247    35    32    1.6    0.0    1.6   0.00   3.95    0.8    1.0    0.6    3.9   3.95   1.28    0.00    0.02
 1992 248    36    33    1.7    0.0    1.7   0.00   3.89    1.1    1.1    0.5    3.9   3.89   1.30    0.00    0.02
 1992 249    37    34    1.8    0.0    1.8   0.00   3.81    1.4    1.3    0.5    3.8   3.81   1.26    0.00    0.02
 1992 250    38    35    2.0    0.0    2.0   0.00   3.83    1.7    1.5    0.5    3.8   3.83   1.25    0.00    0.03
 1992 251    39    36    2.3    0.0    2.3   0.00   3.73    2.1    1.7    0.5    3.7   3.73   1.23    0.00    0.03
 1992 252    40    37    2.5    0.0    2.5   0.00   3.68    2.3    2.0    0.5    3.7   3.68   1.09    0.00    0.04
 1992 253    41    38    2.9    0.0    2.9   0.00   3.67    2.8    2.4    0.5    3.7   3.67   1.16    0.00    0.04
 1992 254    42    39    3.3    0.0    3.3   0.00   3.62    3.3    2.7    0.5    3.6   3.62   1.18    0.00    0.05
 1992 255    43    40    3.7    0.0    3.7   0.00   3.59    3.7    3.2    0.5    3.6   3.59   1.12    0.00    0.05
 1992 256    44    41    4.2    0.0    4.2   0.00   3.68    4.7    3.7    0.5    3.7   3.68   1.25    0.00    0.06
 1992 257    45    42    4.7    0.0    4.7   0.00   3.84    5.2    4.2    0.5    3.8   3.84   1.19    0.00    0.07
 1992 258    46    43    5.0    0.0    5.0   0.00   3.78    5.9    4.5    0.5    3.8   3.78   1.24    0.00    0.08
 1992 259    47    44    5.4    0.0    5.4   0.00   3.67    6.7    4.9    0.5    3.7   3.67   1.24    0.00    0.09
 1992 260    48    45    5.9    0.0    5.9   0.00   3.57    7.3    5.4    0.5    3.6   3.57   1.15    0.00    0.10
 1992 261    49    46    6.7    0.0    6.7   0.00   3.41    8.3    6.2    0.5    3.4   3.41   1.16    0.00    0.11
 1992 262    50    47    7.8    0.0    7.8   0.00   3.75   10.2    7.3    0.5    3.8   3.75   1.27    0.00    0.13
 1992 263    51    48    8.3    0.0    8.3   0.00   3.74   11.3    7.8    0.5    3.7   3.74   1.25    0.00    0.15
 1992 264    52    49    8.8    0.0    8.8   0.00   3.57   12.2    8.3    0.5    3.6   3.57   1.21    0.00    0.17
 1992 265    53    50    9.7    0.0    9.7   0.00   3.38   13.6    9.2    0.5    3.4   3.38   1.19    0.00    0.19
 1992 266    54    51   11.2    0.0   11.2   0.00   3.81   14.9   10.7    0.5    3.8   3.81   1.11    0.00    0.22
 1992 267    55    52   11.5    0.0   11.5   0.00   3.71   16.0   11.0    0.5    3.7   3.71   1.18    0.00    0.24
 1992 268    56    53   12.1    0.0   12.1   0.00   3.75   16.3   11.6    0.5    3.8   3.75   1.11    0.00    0.27
 1992 269    57    54   12.6    0.0   12.6   0.00   3.84   18.2   12.0    0.5    3.8   3.84   1.31    0.00    0.30
 1992 270    58    55   12.7    0.0   12.7   0.00   4.13   19.2   12.2    0.6    4.1   4.13   1.36    0.00    0.33
 1992 271    59    56   12.7    0.0   12.7   0.00   3.88   19.2   12.2    0.5    3.9   3.88   1.24    0.00    0.33
 1992 272    60    57   12.7    0.0   12.7   0.00   3.59   19.2   12.2    0.5    3.6   3.59   1.14    0.00    0.33
 1992 273    61    58   14.7    0.0   14.7   0.00   3.78   22.0   14.2    0.5    3.8   3.78   1.16    0.00    0.37
 1992 274    62    59   16.1    0.0   16.1   0.00   3.68   24.0   15.6    0.5    3.7   3.68   1.15    0.00    0.41
 1992 275    63    60   17.5    0.0   17.5   0.00   3.57   25.2   17.0    0.5    3.6   3.57   1.10    0.00    0.46
 1992 276    64    61   19.0    0.0   19.0   0.00   3.54   27.1   18.5    0.5    3.5   3.54   1.10    0.00    0.50
 1992 277    65    62   20.4    0.0   20.4   0.00   3.51   29.5   19.9    0.6    3.5   3.51   1.14    0.00    0.55
 1992 278    66    63   22.3    0.0   22.3   0.00   3.48   32.0   21.7    0.6    3.5   3.48   1.14    0.00    0.60
 1992 279    67    64   23.6    0.0   23.6   0.00   3.45   32.9   23.0    0.7    3.5   3.45   1.08    0.00    0.65
 1992 280    68    65   24.6    0.0   24.6   0.00   3.47   36.3   23.9    0.7    3.5   3.47   1.22    0.00    0.71
 1992 281    69    66   25.2    0.0   25.2   0.00   3.47   37.6   24.5    0.7    3.5   3.47   1.21    0.00    0.77
 1992 282    70    67   25.9    0.0   25.9   0.00   3.43   39.2   25.1    0.8    3.4   3.43   1.19    0.00    0.84
 1992 283    71    68   27.0    0.0   27.0   0.00   3.40   41.3   26.1    0.9    3.4   3.40   1.16    0.00    0.91
 1992 284    72    69   29.2    0.0   29.2   0.00   3.37   44.5   28.1    1.1    3.4   3.37   1.15    0.00    0.99
 1992 285    73    70   31.8    0.0   31.8   0.00   3.34   47.1   30.5    1.3    3.3   3.34   1.11    0.00    1.07
 1992 286    74    71   34.5    0.0   34.5   0.00   3.31   51.3   32.9    1.7    3.3   3.31   1.14    0.00    1.15
 1992 287    75    72   37.0    0.0   37.0   0.00   3.28   55.4   35.0    2.0    3.3   3.28   1.15    0.00    1.24
 1992 288    76    73   40.6    0.0   40.6   0.00   3.25   59.9   37.9    2.6    3.2   3.25   1.13    0.00    1.34
 1992 289    77    74   43.2    0.0   43.2   0.00   3.20   61.3   39.9    3.2    3.2   3.20   1.07    0.00    1.44
 1992 290    78    75   46.2    0.0   46.2   0.00   3.17   64.5   42.3    3.9    3.2   3.17   1.07    0.00    1.54
 1992 291    79    76   48.9    0.0   48.9   0.00   3.15   69.8   44.2    4.6    3.1   3.15   1.14    0.00    1.63
 1992 292    80    77   50.9    0.0   50.9   0.00   3.13   73.9   45.7    5.2    3.1   3.13   1.15    0.00    1.74
 1992 293    81    78   53.3    0.0   53.3   0.00   3.11   75.0   47.4    5.9    3.1   3.11   1.08    0.00    1.86
 1992 294    82    79   55.4    0.0   55.4   0.00   3.09   80.1   48.9    6.5    3.1   3.09   1.14    0.00    1.98
 1992 295    83    80   57.3    0.0   57.3   0.00   3.07   84.1   50.2    7.2    3.1   3.07   1.15    0.00    2.11
 1992 296    84    81   60.1    0.0   60.1   0.00   3.05   88.1   52.0    8.1    3.0   3.05   1.13    0.00    2.24
 1992 297    85    82   64.3    0.0   64.3   0.00   3.02   93.3   54.6    9.7    3.0   3.02   1.12    0.00    2.39
 1992 298    86    83   69.8    0.0   69.8   0.00   2.98   99.6   57.9   11.9    3.0   2.98   1.11    0.00    2.54
 1992 299    87    84   73.3    0.0   73.3   0.00   2.94  101.9   59.8   13.5    2.9   2.94   1.07    0.00    2.69
 1992 300    88    85   79.1    0.0   79.1   0.00   2.90  110.2   62.9   16.2    2.9   2.90   1.11    0.00    2.84
 1992 301    89    86   85.5    0.0   85.5   0.00   2.86  117.7   66.1   19.4    2.9   2.86   1.11    0.00    3.00
 1992 302    90    87   87.4    0.0   87.4   0.00   2.88  119.4   67.2   20.2    2.9   2.88   1.09    0.00    3.17
 1992 303    91    88   89.2    0.0   89.2   0.00   2.84  124.6   67.8   21.4    2.8   2.84   1.14    0.00    3.33
 1992 304    92    89   92.0    0.0   92.0   0.00   2.82  129.1   69.2   22.8    2.8   2.82   1.13    0.00    3.51
 1992 305    93    90   95.4    0.0   95.4   0.00   2.80  134.1   70.7   24.7    2.8   2.80   1.12    0.00    3.70
 1992 306    94    91  100.1    0.0  100.1   0.00   2.78  139.9   72.7   27.3    2.8   2.78   1.11    0.00    3.90
 1992 307    95    92  104.2    0.0  104.2   0.00   2.68  144.5   73.7   30.5    2.7   2.68   1.09    0.00    4.11
 1992 308    96    93  107.7    0.0  107.7   0.00   2.56  147.9   75.9   31.9    2.6   2.56   1.08    0.00    4.31
 1992 309    97    94  109.9    0.0  109.9   0.00   2.55  150.6   77.1   32.7    2.5   2.55   1.07    0.00    4.52
 1992 310    98    95  111.8    0.0  111.8   0.00   2.53  153.1   78.1   33.7    2.5   2.53   1.06    0.00    4.72
 1992 311    99    96  113.2    0.0  113.2   0.00   2.48  155.0   78.4   34.8    2.5   2.48   1.04    0.00    4.93
 1992 312   100    97  114.4    0.0  114.4   0.00   2.40  156.6   78.2   36.2    2.4   2.40   1.01    0.00    5.15
 1992 313   101    98  115.5    0.0  115.5   0.00   2.31  157.9   77.5   37.9    2.3   2.31   0.99    0.00    5.36
 1992 314   102    99  116.3    0.0  116.3   0.00   2.20  158.9   76.2   40.1    2.2   2.20   0.97    0.00    5.58
 1992 315   103   100  117.0    0.0  117.0   0.00   2.15  159.8   75.8   41.3    2.2   2.15   0.98    0.00    5.79
 1992 316   104   101  117.8    0.0  117.8   0.00   2.04  160.6   74.2   43.6    2.0   2.04   0.97    0.00    6.01
 1992 317   105   102  118.4    0.0  118.4   0.00   1.95  161.4   72.6   45.8    1.9   1.95   0.95    0.00    6.23
 1992 318   106   103  118.9    0.0  118.9   0.00   1.88  162.1   71.4   47.5    1.9   1.88   0.93    0.00    6.44
 1992 319   107   104  120.0    0.0  120.0   0.00   1.81  163.3   70.3   49.7    1.8   1.81   0.93    0.00    6.66
 1992 320   108   105  120.9    0.0  120.9   0.00   1.75  164.4   69.4   51.5    1.8   1.75   0.92    0.00    6.88
 1992 321   109   106  121.8    0.0  121.8   0.00   1.73  165.5   69.1   52.7    1.7   1.73   0.90    0.00    7.10
 1992 322   110   107  122.9    0.0  122.9   0.00   1.71  166.9   69.1   53.8    1.7   1.71   0.87    0.00    7.32
 1992 323   111   108  123.8    0.0  123.8   0.00   1.69  168.0   68.9   54.9    1.7   1.69   0.85    0.00    7.55
 1992 324   112   109  124.6    0.0  124.6   0.00   1.65  169.1   68.3   56.4    1.7   1.65   0.83    0.00    7.77
 1992 325   113   110  125.4    0.0  125.4   0.00   1.61  170.1   67.5   57.9    1.6   1.61   0.82    0.00    7.99
 1992 326   114   111  126.2    0.0  126.2   0.00   1.59  171.1   67.3   58.9    1.6   1.59   0.83    0.00    8.22
 1992 327   115   112  126.9    0.0  126.9   0.00   1.57  172.0   67.1   59.8    1.6   1.57   0.81    0.00    8.45
 1992 328   116   113  127.6    0.0  127.6   0.00   1.56  172.9   67.0   60.6    1.6   1.56   0.80    0.00    8.67
 1992 329   117   114  128.2    0.0  128.2   0.00   1.54  173.7   66.6   61.6    1.5   1.54   0.79    0.00    8.90
 1992 330   118   115  128.8    0.0  128.8   0.00   1.50  174.5   66.1   62.7    1.5   1.50   0.78    0.00    9.13
 1992 331   119   116  129.4    0.0  129.4   0.00   1.64  175.2   71.4   58.0    1.6   1.64   0.78    0.00    9.36
 1992 332   120   117  129.8    0.0  129.8   0.00   1.64  175.9   70.8   59.0    1.6   1.64   0.76    0.00    9.59
 1992 333   121   118  130.3    0.0  130.3   0.00   1.65  176.6   70.1   60.2    1.6   1.65   0.76    0.00    9.82
 1992 334   122   119  130.7    0.0  130.7   0.00   1.65  177.2   69.2   61.5    1.6   1.65   0.76    0.00   10.06
 1992 335   123   120  131.2    0.0  131.2   0.00   1.65  177.9   68.3   62.9    1.6   1.65   0.76    0.00   10.29
 1992 336   124   121  131.6    0.0  131.6   0.00   1.65  178.6   67.6   64.0    1.7   1.65   0.75    0.00   10.52
 1992 337   125   122  132.2    0.0  132.2   0.00   1.66  179.7   67.0   65.2    1.7   1.66   0.73    0.00   10.76
 1992 338   126   123  132.8    0.0  132.8   0.00   1.67  180.7   66.3   66.4    1.7   1.67   0.73    0.00   11.00
 1992 339   127   124  133.3    0.0  133.3   0.00   1.67  181.7   65.4   67.9    1.7   1.67   0.72    0.00   11.24
 1992 340   128   125  133.8    0.0  133.8   0.00   1.68  182.7   64.5   69.3    1.7   1.68   0.72    0.00   11.48
 1992 341   129   126  134.2    0.0  134.2   0.00   1.68  183.6   63.4   70.8    1.7   1.68   0.73    0.00   11.73
 1992 342   130   127  134.5    0.0  134.5   0.00   1.68  184.3   62.3   72.2    1.7   1.68   0.73    0.00   11.97
 1992 343   131   128  135.0    0.0  135.0   0.00   1.69  185.4   61.2   73.7    1.7   1.69   0.73    0.00   12.22
 1992 344   132   129  135.3    0.0  135.3   0.00   1.69  186.5   60.1   75.3    1.7   1.69   0.73    0.00   12.47
 1992 345   133   130  135.7    4.7  131.1   1.62   1.64  187.4   58.2   72.9    1.6   1.64   0.74    0.00   12.73
 1992 346   134   131  136.1    8.7  127.5   1.60   1.60  188.3   56.6   70.9    1.6   1.60   0.75    0.00   12.99
 1992 347   135   132  136.6   12.4  124.2   1.58   1.55  189.2   55.1   69.1    1.6   1.55   0.75    0.00   13.25
 1992 348   136   133  137.0   16.8  120.2   1.57   1.50  190.1   53.3   66.9    1.5   1.50   0.75    0.00   13.51
 1992 349   137   134  137.4   21.0  116.5   1.56   1.46  191.0   51.7   64.8    1.5   1.46   0.75    0.00   13.78
 1992 350   138   135  137.9   24.0  113.8   1.55   1.42  191.8   50.5   63.3    1.4   1.42   0.75    0.00   14.04
 1992 351   139   136  138.3   27.8  110.5   1.54   1.38  192.7   49.0   61.5    1.4   1.38   0.76    0.00   14.31
 1992 352   140   137  138.7   32.0  106.8   1.52   1.34  193.5   47.4   59.4    1.3   1.34   0.76    0.00   14.58
 1992 353   141   138  139.1   36.0  103.1   1.51   1.29  194.1   45.7   57.3    1.3   1.29   0.76    0.00   14.86
 1992 354   142   139  139.6   40.0   99.6   1.50   1.25  195.1   44.2   55.4    1.2   1.25   0.77    0.00   15.13
 1992 355   143   140  140.1   44.0   96.1   1.49   1.20  195.9   42.6   53.4    1.2   1.20   0.77    0.00   15.41
 1992 356   144   141  140.6   47.8   92.8   1.47   1.16  196.8   41.2   51.6    1.2   1.16   0.78    0.00   15.68
 1992 357   145   142  141.1   51.6   89.5   1.46   1.13  197.6   40.2   49.3    1.1   1.13   0.79    0.00   15.96
 1992 358   146   143  141.5   55.3   86.2   1.45   1.11  198.3   39.2   47.0    1.1   1.11   0.79    0.00   16.24
 1992 359   147   144  142.1   58.9   83.1   1.43   1.05  199.2   37.4   45.7    1.1   1.05   0.80    0.00   16.53
 1992 360   148   145  142.4   62.2   80.3   1.42   1.01  199.8   35.8   44.4    1.0   1.01   0.80    0.00   16.81
 1992 361   149   146  143.0   65.0   78.0   1.41   0.98  200.8   34.6   43.4    1.0   0.98   0.80    0.00   17.09
 1992 362   150   147  143.5   67.8   75.7   1.40   0.95  201.5   33.6   42.1    0.9   0.95   0.80    0.00   17.38
 1992 363   151   148  144.0   71.0   73.0   1.38   0.91  202.3   32.4   40.6    0.9   0.91   0.80    0.00   17.67
 1992 364   152   149  144.5   74.2   70.3   1.37   0.90  203.1   31.8   38.5    0.9   0.90   0.81    0.00   17.96
 1992 365   153   150  145.0   77.0   68.0   1.36   0.88  203.8   31.2   36.7    0.9   0.88   0.82    0.00   18.25
 1992 366   154   151  145.4   79.4   66.0   1.34   0.87  204.5   30.7   35.3    0.9   0.87   0.83    0.00   18.54
 1993 001   155   152  145.6   81.9   63.7   1.33   0.85  204.8   30.0   33.7    0.8   0.85   0.83    0.00   18.83
 1993 002   156   153  145.9   84.4   61.4   1.32   0.83  205.2   29.4   32.0    0.8   0.83   0.84    0.00   19.12
 1993 003   157   154  146.1   87.0   59.1   1.31   0.81  205.6   28.7   30.4    0.8   0.81   0.84    0.00   19.42
 1993 004   158   155  146.3   89.9   56.4   1.30   0.78  205.9   27.7   28.7    0.8   0.78   0.85    0.00   19.71
 1993 005   159   156  146.6   92.8   53.9   1.29   0.75  206.4   26.5   27.4    0.7   0.75   0.85    0.00   20.00
 1993 006   160   157  147.3   95.5   51.7   1.27   0.71  207.4   25.2   26.5    0.7   0.71   0.86    0.00   20.30
 1993 007   161   158  147.8   98.2   49.6   1.26   0.70  208.1   24.7   24.9    0.7   0.70   0.87    0.00   20.60
 1993 008   162   159  148.2  100.7   47.5   1.25   0.67  208.7   23.9   23.7    0.7   0.67   0.87    0.00   20.89
 1993 009   163   160  148.6  102.9   45.7   1.23   0.64  209.2   22.9   22.8    0.6   0.64   0.88    0.00   21.19
 1993 010   164   161  149.3  105.2   44.0   1.22   0.62  210.2   22.0   22.0    0.6   0.62   0.89    0.00   21.49
 1993 011   165   162  150.0  107.5   42.5   1.21   0.60  211.1   21.3   21.3    0.6   0.60   0.89    0.00   21.79
 1993 012   166   163  150.8  109.6   41.2   1.19   0.58  212.2   20.7   20.5    0.6   0.58   0.90    0.00   22.09
 1993 013   167   164  151.7  111.7   40.0   1.18   0.58  213.2   20.4   19.6    0.6   0.58   0.91    0.00   22.39
 1993 014   168   165  152.7  113.7   39.0   1.16   0.57  214.3   20.4   18.6    0.6   0.57   0.91    0.00   22.70
 1993 015   169   166  152.7  113.7   39.0   1.16   0.57  215.3   20.4   18.6    0.6   0.57   0.91    0.00   22.70
 1993 016   170   167  152.7  113.7   39.0   1.16   0.57  216.3   20.4   18.6    0.6   0.57   0.91    0.00   22.70
 1993 017   171   168  152.7  113.7   39.0   1.16   0.57  217.4   20.4   18.6    0.6   0.57   0.91    0.00   22.70
 1993 018   172   169  152.7  113.7   39.0   1.16   0.57  218.4   20.4   18.6    0.6   0.57   0.91    0.00   22.70
