*SOIL WATER DAILY OUTPUT FILE

*DSSAT Cropping System Model Ver. 4.0.2.000               Aug 03, 2016; 15:38:57

*RUN   1        : UYMZ                    
 MODEL          : MZCER040 - Maize           
 EXPERIMENT     : UYMZ0133 MZ    late to create DSS                             
 TREATMENT  1   : UYMZ                    

@YEAR DOY   DAS  SWXD   ROFC   DRNC   PREC  IR#C  IRRC  DTWT   SW1D   SW2D   SW3D   SW4D   SW5D   SW6D   SW7D   SW8D   SW9D   SW10
 1987 212     0   116      0      0      0     0     0   125  0.358  0.394  0.394  0.335  0.375  0.419  0.408  0.395  0.000  0.000
 1987 213     1   115      0      0      0     0     0   125  0.329  0.393  0.394  0.335  0.376  0.418  0.408  0.395  0.000  0.000
 1987 214     2   113      0      0      0     0     0   125  0.309  0.392  0.394  0.336  0.376  0.418  0.408  0.395  0.000  0.000
 1987 215     3   154      0      0      0     1    43   125  0.514  0.566  0.478  0.336  0.377  0.417  0.408  0.395  0.000  0.000
 1987 216     4   152      0      0      0     1    43   125  0.506  0.536  0.489  0.338  0.377  0.417  0.408  0.395  0.000  0.000
 1987 217     5   164      0      0     13     1    43   125  0.568  0.553  0.536  0.341  0.378  0.416  0.408  0.395  0.000  0.000
 1987 218     6   171      0      0     20     1    43   125  0.551  0.566  0.558  0.358  0.378  0.416  0.408  0.395  0.000  0.000
 1987 219     7   185      0      0     36     1    43   125  0.531  0.568  0.563  0.448  0.382  0.415  0.408  0.395  0.000  0.000
 1987 220     8   183      0      0     36     1    43   125  0.512  0.552  0.555  0.443  0.404  0.415  0.408  0.395  0.000  0.000
 1987 221     9   181      0      0     36     1    43   125  0.487  0.536  0.549  0.440  0.416  0.415  0.408  0.395  0.000  0.000
 1987 222    10   180      0      0     36     1    43   125  0.502  0.526  0.543  0.439  0.419  0.415  0.408  0.395  0.000  0.000
 1987 223    11   178      0      0     36     1    43   125  0.471  0.524  0.539  0.438  0.420  0.415  0.408  0.395  0.000  0.000
 1987 224    12   185      0      0     44     1    43   125  0.564  0.547  0.539  0.437  0.421  0.415  0.407  0.395  0.000  0.000
 1987 225    13   184      0      0     44     1    43   125  0.535  0.544  0.543  0.437  0.422  0.415  0.407  0.395  0.000  0.000
 1987 226    14   192      0      0     55     1    43   125  0.540  0.565  0.568  0.448  0.430  0.415  0.407  0.395  0.000  0.000
 1987 227    15   200      0      0     64     1    43   125  0.540  0.567  0.568  0.470  0.446  0.420  0.407  0.395  0.000  0.000
 1987 228    16   191      0      5     64     1    43   125  0.479  0.556  0.557  0.457  0.440  0.420  0.408  0.395  0.000  0.000
 1987 229    17   187      0      8     64     1    43   125  0.502  0.531  0.550  0.449  0.437  0.420  0.408  0.395  0.000  0.000
 1987 230    18   187      0      8     64     1    43   125  0.508  0.526  0.543  0.447  0.438  0.421  0.410  0.395  0.000  0.000
 1987 231    19   183      0      9     64     1    43   125  0.469  0.526  0.540  0.443  0.435  0.421  0.410  0.395  0.000  0.000
 1987 232    20   181      0     10     64     1    43   125  0.467  0.517  0.536  0.441  0.433  0.421  0.410  0.395  0.000  0.000
 1987 233    21   180      0     10     64     1    43   125  0.467  0.512  0.532  0.440  0.433  0.421  0.410  0.395  0.000  0.000
 1987 234    22   179      0     10     64     1    43   125  0.467  0.508  0.529  0.439  0.433  0.421  0.410  0.395  0.000  0.000
 1987 235    23   178      0     10     64     1    43   125  0.467  0.505  0.527  0.438  0.433  0.421  0.410  0.395  0.000  0.000
 1987 236    24   177      0     10     64     1    43   125  0.467  0.503  0.524  0.436  0.433  0.421  0.410  0.395  0.000  0.000
 1987 237    25   176      0     10     64     1    43   125  0.467  0.501  0.522  0.435  0.433  0.421  0.410  0.395  0.000  0.000
 1987 238    26   176      0     10     64     1    43   125  0.467  0.499  0.520  0.434  0.433  0.421  0.410  0.395  0.000  0.000
 1987 239    27   175      0     10     64     1    43   125  0.466  0.497  0.518  0.433  0.433  0.421  0.410  0.395  0.000  0.000
 1987 240    28   209      0     10    100     1    43   125  0.556  0.566  0.566  0.469  0.460  0.434  0.419  0.400  0.000  0.000
 1987 241    29   222      1     32    136     1    43   125  0.546  0.568  0.568  0.470  0.460  0.447  0.439  0.432  0.000  0.000
 1987 242    30   205      1     46    136     1    43   125  0.476  0.557  0.557  0.457  0.449  0.436  0.427  0.417  0.000  0.000
 1987 243    31   193      1     55    136     1    43   125  0.465  0.531  0.550  0.449  0.442  0.429  0.419  0.408  0.000  0.000
 1987 244    32   186      1     60    136     1    43   125  0.453  0.520  0.542  0.445  0.437  0.425  0.415  0.403  0.000  0.000
 1987 245    33   182      1     62    136     1    43   125  0.461  0.513  0.537  0.442  0.435  0.423  0.412  0.400  0.000  0.000
 1987 246    34   180      1     64    136     1    43   125  0.460  0.509  0.533  0.439  0.433  0.421  0.410  0.398  0.000  0.000
 1987 247    35   179      1     64    136     1    43   125  0.460  0.505  0.529  0.439  0.433  0.421  0.410  0.398  0.000  0.000
 1987 248    36   178      1     64    136     1    43   125  0.461  0.502  0.526  0.437  0.433  0.421  0.410  0.398  0.000  0.000
 1987 249    37   177      1     64    136     1    43   125  0.461  0.500  0.524  0.436  0.433  0.421  0.410  0.398  0.000  0.000
 1987 250    38   176      1     64    136     1    43   125  0.461  0.498  0.521  0.435  0.433  0.421  0.410  0.398  0.000  0.000
 1987 251    39   176      1     64    136     1    43   125  0.461  0.496  0.519  0.434  0.433  0.421  0.410  0.398  0.000  0.000
 1987 252    40   175      1     64    136     1    43   125  0.461  0.495  0.517  0.433  0.433  0.421  0.410  0.398  0.000  0.000
 1987 253    41   174      1     64    136     1    43   125  0.461  0.493  0.516  0.432  0.432  0.421  0.410  0.398  0.000  0.000
 1987 254    42   174      1     64    136     1    43   125  0.460  0.491  0.514  0.431  0.432  0.421  0.410  0.398  0.000  0.000
 1987 255    43   173      1     64    136     1    43   125  0.459  0.489  0.512  0.430  0.432  0.421  0.410  0.398  0.000  0.000
 1987 256    44   172      1     64    136     1    43   125  0.458  0.488  0.510  0.430  0.431  0.421  0.410  0.398  0.000  0.000
 1987 257    45   172      1     64    136     1    43   125  0.457  0.486  0.509  0.429  0.431  0.421  0.410  0.398  0.000  0.000
 1987 258    46   219      1     66    188     1    43   125  0.528  0.566  0.566  0.469  0.460  0.447  0.439  0.418  0.000  0.000
 1987 259    47   202      1     80    188     1    43   125  0.466  0.549  0.556  0.457  0.448  0.436  0.427  0.409  0.000  0.000
 1987 260    48   191      1     87    188     1    43   125  0.454  0.526  0.547  0.449  0.441  0.429  0.419  0.403  0.000  0.000
 1987 261    49   185      1     91    188     1    43   125  0.456  0.516  0.540  0.445  0.437  0.425  0.415  0.400  0.000  0.000
 1987 262    50   181      1     94    188     1    43   125  0.457  0.509  0.534  0.441  0.435  0.423  0.412  0.398  0.000  0.000
 1987 263    51   179      1     95    188     1    43   125  0.457  0.505  0.530  0.439  0.433  0.421  0.410  0.398  0.000  0.000
 1987 264    52   178      1     95    188     1    43   125  0.458  0.502  0.526  0.438  0.433  0.421  0.410  0.398  0.000  0.000
 1987 265    53   177      1     95    188     1    43   125  0.458  0.499  0.523  0.437  0.433  0.421  0.410  0.398  0.000  0.000
 1987 266    54   176      1     95    188     1    43   125  0.458  0.496  0.521  0.436  0.433  0.421  0.410  0.398  0.000  0.000
 1987 267    55   175      1     95    188     1    43   125  0.457  0.494  0.518  0.434  0.433  0.421  0.410  0.398  0.000  0.000
 1987 268    56   174      1     95    188     1    43   125  0.456  0.491  0.515  0.433  0.433  0.421  0.410  0.398  0.000  0.000
 1987 269    57   173      1     95    188     1    43   125  0.455  0.489  0.513  0.432  0.432  0.421  0.410  0.398  0.000  0.000
 1987 270    58   172      1     95    188     1    43   125  0.453  0.486  0.511  0.431  0.432  0.421  0.410  0.398  0.000  0.000
 1987 271    59   171      1     95    188     1    43   125  0.451  0.484  0.508  0.430  0.432  0.421  0.410  0.398  0.000  0.000
 1987 272    60   170      1     95    188     1    43   125  0.449  0.481  0.505  0.429  0.431  0.421  0.410  0.398  0.000  0.000
 1987 273    61   183      1     95    202     1    43   125  0.549  0.552  0.509  0.428  0.431  0.421  0.410  0.398  0.000  0.000
 1987 274    62   180      1     95    202     1    43   125  0.494  0.539  0.516  0.428  0.430  0.421  0.410  0.398  0.000  0.000
 1987 275    63   177      1     95    202     1    43   125  0.486  0.519  0.515  0.428  0.430  0.421  0.410  0.398  0.000  0.000
 1987 276    64   175      1     95    202     1    43   125  0.477  0.509  0.513  0.427  0.430  0.421  0.410  0.398  0.000  0.000
 1987 277    65   173      1     95    202     1    43   125  0.468  0.501  0.510  0.427  0.429  0.421  0.410  0.398  0.000  0.000
 1987 278    66   171      1     95    202     1    43   125  0.460  0.493  0.505  0.426  0.429  0.421  0.410  0.398  0.000  0.000
 1987 279    67   170      1     95    202     1    43   125  0.454  0.487  0.502  0.425  0.428  0.421  0.410  0.398  0.000  0.000
 1987 280    68   169      1     95    202     1    43   125  0.448  0.483  0.500  0.424  0.428  0.421  0.410  0.398  0.000  0.000
 1987 281    69   168      1     95    205     1    43   125  0.465  0.478  0.497  0.423  0.428  0.421  0.410  0.398  0.000  0.000
 1987 282    70   166      1     95    205     1    43   125  0.452  0.474  0.491  0.422  0.427  0.421  0.410  0.398  0.000  0.000
 1987 283    71   164      1     95    205     1    43   125  0.441  0.469  0.486  0.421  0.427  0.421  0.410  0.398  0.000  0.000
 1987 284    72   184      1     95    229     1    43   125  0.525  0.563  0.533  0.419  0.426  0.421  0.410  0.398  0.000  0.000
 1987 285    73   191      1     95    240     1    43   125  0.517  0.552  0.562  0.442  0.428  0.421  0.410  0.398  0.000  0.000
 1987 286    74   185      1     96    240     1    43   125  0.486  0.532  0.548  0.439  0.431  0.421  0.410  0.398  0.000  0.000
 1987 287    75   183      1     97    240     1    43   125  0.492  0.521  0.538  0.438  0.431  0.421  0.410  0.398  0.000  0.000
 1987 288    76   194      1     97    253     1    43   125  0.564  0.563  0.552  0.443  0.434  0.422  0.410  0.398  0.000  0.000
 1987 289    77   188      1     99    253     1    43   125  0.512  0.549  0.544  0.439  0.433  0.422  0.410  0.398  0.000  0.000
 1987 290    78   182      1     99    253     1    43   125  0.474  0.527  0.537  0.436  0.433  0.422  0.410  0.398  0.000  0.000
 1987 291    79   178      1     99    253     1    43   125  0.462  0.510  0.526  0.432  0.432  0.422  0.410  0.398  0.000  0.000
 1987 292    80   173      1     99    253     1    43   125  0.434  0.499  0.518  0.428  0.431  0.422  0.410  0.398  0.000  0.000
 1987 293    81   169      1     99    253     1    43   125  0.422  0.486  0.508  0.423  0.430  0.422  0.410  0.398  0.000  0.000
 1987 294    82   165      1     99    253     1    43   125  0.414  0.474  0.499  0.417  0.428  0.422  0.410  0.398  0.000  0.000
 1987 295    83   161      1     99    253     1    43   125  0.406  0.465  0.491  0.412  0.426  0.422  0.410  0.398  0.000  0.000
 1987 296    84   157      1     99    253     1    43   125  0.399  0.455  0.482  0.406  0.423  0.421  0.410  0.398  0.000  0.000
 1987 297    85   154      1     99    253     1    43   125  0.392  0.447  0.474  0.400  0.420  0.421  0.410  0.398  0.000  0.000
 1987 298    86   151      1     99    253     1    43   125  0.386  0.442  0.470  0.397  0.418  0.421  0.410  0.398  0.000  0.000
 1987 299    87   149      1     99    253     1    43   125  0.379  0.438  0.466  0.394  0.416  0.421  0.410  0.398  0.000  0.000
 1987 300    88   147      1     99    253     1    43   125  0.375  0.434  0.462  0.391  0.414  0.421  0.410  0.398  0.000  0.000
 1987 301    89   144      1     99    253     1    43   125  0.369  0.427  0.455  0.386  0.411  0.421  0.410  0.398  0.000  0.000
 1987 302    90   168      1     99    253     2    74   125  0.543  0.560  0.486  0.378  0.405  0.420  0.410  0.398  0.000  0.000
 1987 303    91   162      1     99    253     2    74   125  0.506  0.533  0.486  0.374  0.398  0.420  0.410  0.398  0.000  0.000
 1987 304    92   155      1     99    253     2    74   125  0.490  0.508  0.478  0.371  0.390  0.419  0.410  0.398  0.000  0.000
 1987 305    93   152      1     99    253     2    74   125  0.482  0.495  0.473  0.371  0.387  0.418  0.410  0.398  0.000  0.000
 1987 306    94   150      1     99    254     2    74   125  0.486  0.485  0.469  0.370  0.384  0.417  0.410  0.398  0.000  0.000
 1987 307    95   147      1     99    254     2    74   125  0.472  0.478  0.464  0.369  0.381  0.416  0.410  0.398  0.000  0.000
 1987 308    96   145      1     99    254     2    74   125  0.466  0.473  0.460  0.368  0.380  0.415  0.410  0.398  0.000  0.000
 1987 309    97   157      1     99    268     2    74   125  0.562  0.549  0.463  0.368  0.379  0.415  0.410  0.398  0.000  0.000
 1987 310    98   171      1     99    284     2    74   125  0.558  0.553  0.553  0.374  0.378  0.414  0.410  0.398  0.000  0.000
 1987 311    99   165      1     99    284     2    74   125  0.527  0.537  0.533  0.382  0.373  0.412  0.410  0.398  0.000  0.000
 1987 312   100   163      1     99    287     2    74   125  0.558  0.532  0.522  0.380  0.371  0.409  0.410  0.398  0.000  0.000
 1987 313   101   159      1     99    288     2    74   125  0.532  0.530  0.512  0.377  0.369  0.406  0.410  0.398  0.000  0.000
 1987 314   102   153      1     99    288     2    74   125  0.510  0.518  0.503  0.375  0.367  0.401  0.410  0.398  0.000  0.000
 1987 315   103   147      1     99    288     2    74   125  0.495  0.504  0.494  0.372  0.365  0.395  0.409  0.398  0.000  0.000
 1987 316   104   142      1     99    288     2    74   125  0.484  0.494  0.486  0.371  0.364  0.389  0.409  0.398  0.000  0.000
 1987 317   105   136      1     99    288     2    74   125  0.470  0.482  0.476  0.368  0.363  0.384  0.409  0.398  0.000  0.000
 1987 318   106   206     20    100    383     2    74   125  0.569  0.558  0.558  0.467  0.459  0.428  0.417  0.401  0.000  0.000
 1987 319   107   192     20    108    383     2    74   125  0.546  0.545  0.545  0.450  0.442  0.419  0.414  0.399  0.000  0.000
 1987 320   108   196     20    108    393     2    74   125  0.555  0.561  0.561  0.451  0.439  0.416  0.413  0.399  0.000  0.000
 1987 321   109   186     20    111    393     2    74   125  0.537  0.549  0.549  0.439  0.428  0.410  0.411  0.398  0.000  0.000
 1987 322   110   183     20    111    393     2    74   125  0.535  0.542  0.544  0.435  0.428  0.408  0.410  0.398  0.000  0.000
 1987 323   111   220     22    133    457     2    74   125  0.567  0.563  0.564  0.467  0.457  0.444  0.439  0.432  0.000  0.000
 1987 324   112   205     22    146    457     2    74   125  0.554  0.553  0.554  0.452  0.444  0.431  0.427  0.417  0.000  0.000
 1987 325   113   201     22    149    462     2    74   125  0.558  0.563  0.556  0.447  0.438  0.422  0.426  0.416  0.000  0.000
 1987 326   114   190     22    154    462     2    74   125  0.541  0.551  0.546  0.436  0.428  0.415  0.417  0.407  0.000  0.000
 1987 327   115   186     22    156    462     2    74   125  0.537  0.545  0.542  0.436  0.428  0.413  0.412  0.402  0.000  0.000
 1987 328   116   182     22    157    462     2    74   125  0.536  0.539  0.539  0.433  0.425  0.410  0.409  0.399  0.000  0.000
 1987 329   117   180     22    157    464     2    74   125  0.558  0.540  0.536  0.430  0.421  0.406  0.407  0.398  0.000  0.000
 1987 330   118   176     22    157    464     2    74   125  0.544  0.539  0.533  0.427  0.418  0.403  0.405  0.398  0.000  0.000
 1987 331   119   170     22    157    464     2    74   125  0.531  0.533  0.528  0.422  0.412  0.398  0.401  0.398  0.000  0.000
 1987 332   120   164     22    157    464     2    74   125  0.520  0.525  0.522  0.416  0.406  0.392  0.397  0.397  0.000  0.000
 1987 333   121   157     22    157    464     2    74   125  0.510  0.516  0.515  0.409  0.399  0.387  0.391  0.397  0.000  0.000
 1987 334   122   149     22    157    464     2    74   125  0.500  0.507  0.507  0.403  0.392  0.382  0.384  0.397  0.000  0.000
 1987 335   123   141     22    157    464     2    74   125  0.488  0.497  0.498  0.395  0.385  0.378  0.377  0.396  0.000  0.000
 1987 336   124   137     22    157    464     2    74   125  0.483  0.490  0.492  0.390  0.382  0.376  0.374  0.396  0.000  0.000
 1987 337   125   135     22    157    464     2    74   125  0.481  0.487  0.488  0.388  0.381  0.375  0.373  0.395  0.000  0.000
 1987 338   126   208     41    157    558     2    74   125  0.580  0.565  0.564  0.468  0.459  0.442  0.399  0.394  0.000  0.000
 1987 339   127   205     41    157    562     2    74   125  0.556  0.562  0.562  0.464  0.455  0.433  0.410  0.398  0.000  0.000
 1987 340   128   191     41    164    562     2    74   125  0.538  0.549  0.549  0.448  0.440  0.422  0.405  0.397  0.000  0.000
 1987 341   129   188     41    166    562     2    74   125  0.537  0.542  0.544  0.442  0.434  0.420  0.406  0.397  0.000  0.000
 1987 342   130   187     41    166    566     2    74   125  0.562  0.553  0.543  0.438  0.430  0.417  0.401  0.396  0.000  0.000
 1987 343   131   180     41    166    566     2    74   125  0.545  0.545  0.539  0.432  0.425  0.413  0.396  0.394  0.000  0.000
 1987 344   132   173     41    166    566     2    74   125  0.532  0.539  0.533  0.427  0.419  0.407  0.390  0.391  0.000  0.000
 1987 345   133   169     41    166    566     2    74   125  0.530  0.532  0.530  0.424  0.416  0.404  0.387  0.389  0.000  0.000
 1987 346   134   164     41    166    567     2    74   125  0.536  0.527  0.524  0.419  0.411  0.398  0.382  0.387  0.000  0.000
 1987 347   135   157     41    166    567     2    74   125  0.516  0.524  0.519  0.414  0.405  0.393  0.378  0.383  0.000  0.000
 1987 348   136   153     41    166    567     2    74   125  0.514  0.517  0.516  0.411  0.402  0.390  0.376  0.380  0.000  0.000
 1987 349   137   148     41    166    567     2    74   125  0.504  0.511  0.510  0.407  0.397  0.387  0.373  0.376  0.000  0.000
 1987 350   138   203     42    166    625     2    74   125  0.567  0.564  0.565  0.468  0.458  0.441  0.398  0.374  0.000  0.000
 1987 351   139   199     42    166    627     2    74   125  0.555  0.562  0.558  0.459  0.453  0.433  0.410  0.376  0.000  0.000
 1987 352   140   191     42    169    627     2    74   125  0.540  0.550  0.547  0.447  0.440  0.423  0.405  0.392  0.000  0.000
 1987 353   141   184     42    170    627     2    74   125  0.529  0.542  0.541  0.439  0.432  0.417  0.403  0.391  0.000  0.000
 1987 354   142   178     42    170    627     2    74   125  0.530  0.534  0.537  0.434  0.428  0.413  0.399  0.387  0.000  0.000
 1987 355   143   172     42    170    627     2    74   125  0.519  0.528  0.531  0.429  0.423  0.408  0.394  0.383  0.000  0.000
 1987 356   144   167     42    170    627     2    74   125  0.516  0.523  0.526  0.426  0.419  0.404  0.390  0.379  0.000  0.000
 1987 357   145   161     42    170    627     2    74   125  0.509  0.518  0.521  0.422  0.415  0.400  0.386  0.376  0.000  0.000
 1987 358   146   154     42    170    627     2    74   125  0.499  0.511  0.515  0.417  0.410  0.395  0.381  0.371  0.000  0.000
 1987 359   147   152     42    170    627     2    74   125  0.501  0.507  0.513  0.415  0.408  0.393  0.380  0.369  0.000  0.000
 1987 360   148   149     42    170    627     2    74   125  0.496  0.504  0.509  0.412  0.405  0.391  0.378  0.367  0.000  0.000
 1987 361   149   179     42    170    662     2    74   125  0.559  0.562  0.562  0.465  0.442  0.393  0.375  0.364  0.000  0.000
 1987 362   150   174     42    170    662     2    74   125  0.541  0.550  0.550  0.451  0.433  0.405  0.373  0.362  0.000  0.000
 1987 363   151   180     42    170    670     2    74   125  0.564  0.566  0.565  0.454  0.437  0.406  0.372  0.361  0.000  0.000
 1987 364   152   181     42    170    674     2    74   125  0.561  0.566  0.566  0.457  0.440  0.407  0.371  0.359  0.000  0.000
 1987 365   153   201     42    170    700     2    74   125  0.555  0.565  0.565  0.466  0.455  0.441  0.410  0.359  0.000  0.000
 1988 001   154   192     42    172    700     2    74   125  0.532  0.553  0.553  0.451  0.442  0.425  0.401  0.392  0.000  0.000
 1988 002   155   184     42    173    700     2    74   125  0.522  0.540  0.545  0.441  0.433  0.416  0.402  0.390  0.000  0.000
 1988 003   156   177     42    173    700     2    74   125  0.518  0.530  0.539  0.436  0.428  0.411  0.397  0.385  0.000  0.000
 1988 004   157   169     42    173    700     2    74   125  0.505  0.523  0.532  0.430  0.422  0.406  0.392  0.380  0.000  0.000
 1988 005   158   187     42    173    722     2    74   125  0.568  0.562  0.563  0.466  0.435  0.405  0.389  0.377  0.000  0.000
 1988 006   159   184     42    173    725     2    74   125  0.548  0.563  0.560  0.459  0.439  0.405  0.384  0.373  0.000  0.000
 1988 007   160   177     42    173    725     2    74   125  0.524  0.550  0.548  0.446  0.431  0.413  0.380  0.369  0.000  0.000
 1988 008   161   170     42    173    725     2    74   125  0.518  0.535  0.542  0.438  0.426  0.411  0.376  0.365  0.000  0.000
 1988 009   162   163     42    173    725     2    74   125  0.506  0.526  0.534  0.432  0.420  0.405  0.373  0.361  0.000  0.000
 1988 010   163   157     42    173    725     2    74   125  0.496  0.518  0.527  0.426  0.415  0.400  0.371  0.358  0.000  0.000
 1988 011   164   151     42    173    725     2    74   125  0.486  0.510  0.521  0.422  0.411  0.395  0.369  0.356  0.000  0.000
 1988 012   165   151     42    173    732     2    74   125  0.551  0.531  0.513  0.416  0.405  0.390  0.366  0.354  0.000  0.000
 1988 013   166   177     42    173    761     2    74   125  0.546  0.565  0.568  0.467  0.445  0.393  0.366  0.353  0.000  0.000
 1988 014   167   171     42    173    761     2    74   125  0.518  0.551  0.553  0.451  0.434  0.407  0.364  0.351  0.000  0.000
 1988 015   168   165     42    173    761     2    74   125  0.512  0.533  0.543  0.441  0.429  0.407  0.363  0.350  0.000  0.000
 1988 016   169   160     42    173    761     2    74   125  0.504  0.525  0.537  0.437  0.425  0.403  0.362  0.349  0.000  0.000
 1988 017   170   152     42    173    761     2    74   125  0.480  0.517  0.529  0.430  0.419  0.397  0.360  0.347  0.000  0.000
 1988 018   171   195     42    173    806     2    74   125  0.574  0.562  0.564  0.468  0.459  0.439  0.384  0.347  0.000  0.000
 1988 019   172   222     43    180    842     2    74   125  0.557  0.566  0.566  0.468  0.459  0.446  0.438  0.432  0.000  0.000
 1988 020   173   221     43    200    864     2    74   125  0.555  0.566  0.566  0.468  0.459  0.446  0.438  0.430  0.000  0.000
 1988 021   174   228     64    262    956     2    74   125  0.566  0.575  0.584  0.489  0.459  0.446  0.436  0.429  0.000  0.000
 1988 022   175   217     64    272    962     2    74   125  0.528  0.565  0.567  0.469  0.455  0.442  0.433  0.426  0.000  0.000
 1988 023   176   198     64    284    962     2    74   125  0.495  0.547  0.554  0.453  0.442  0.429  0.419  0.409  0.000  0.000
 1988 024   177   186     64    290    962     2    74   125  0.495  0.527  0.544  0.444  0.434  0.422  0.411  0.400  0.000  0.000
 1988 025   178   180     64    290    962     2    74   125  0.484  0.519  0.537  0.438  0.430  0.418  0.407  0.394  0.000  0.000

*DSSAT Cropping System Model Ver. 4.0.2.000               Aug 03, 2016; 15:38:57

*RUN   2        : UYMZ                    
 MODEL          : MZCER040 - Maize           
 EXPERIMENT     : UYMZ0133 MZ    late to create DSS                             
 TREATMENT  1   : UYMZ                    

@YEAR DOY   DAS  SWXD   ROFC   DRNC   PREC  IR#C  IRRC  DTWT   SW1D   SW2D   SW3D   SW4D   SW5D   SW6D   SW7D   SW8D   SW9D   SW10
 1988 212     0   115      0      0      0     0     0   125  0.326  0.394  0.394  0.335  0.375  0.419  0.408  0.395  0.000  0.000
 1988 213     1   113      0      0      0     0     0   125  0.307  0.392  0.394  0.335  0.376  0.418  0.408  0.395  0.000  0.000
 1988 214     2   138      0      0     25     0     0   125  0.554  0.511  0.394  0.336  0.376  0.418  0.408  0.395  0.000  0.000
 1988 215     3   207      2      0     98     0     0   125  0.535  0.572  0.572  0.470  0.461  0.428  0.414  0.398  0.000  0.000
 1988 216     4   220      2      3    114     0     0   125  0.558  0.565  0.568  0.470  0.460  0.447  0.439  0.415  0.000  0.000
 1988 217     5   219      2      6    117     0     0   125  0.547  0.568  0.566  0.467  0.460  0.442  0.439  0.423  0.000  0.000
 1988 218     6   203      2     19    117     0     0   125  0.497  0.557  0.557  0.455  0.448  0.433  0.427  0.412  0.000  0.000
 1988 219     7   193      2     26    117     0     0   125  0.482  0.535  0.550  0.448  0.441  0.427  0.419  0.405  0.000  0.000
 1988 220     8   188      2     31    117     0     0   125  0.495  0.524  0.543  0.444  0.437  0.424  0.415  0.401  0.000  0.000
 1988 221     9   184      2     33    117     0     0   125  0.483  0.522  0.539  0.441  0.435  0.422  0.412  0.399  0.000  0.000
 1988 222    10   182      2     34    117     0     0   125  0.484  0.518  0.535  0.440  0.433  0.422  0.410  0.397  0.000  0.000
 1988 223    11   181      2     34    117     0     0   125  0.472  0.515  0.532  0.439  0.433  0.422  0.410  0.397  0.000  0.000
 1988 224    12   180      2     34    117     0     0   125  0.469  0.510  0.529  0.438  0.433  0.422  0.410  0.397  0.000  0.000
 1988 225    13   179      2     34    117     0     0   125  0.468  0.507  0.527  0.437  0.433  0.422  0.410  0.397  0.000  0.000
 1988 226    14   178      2     34    117     0     0   125  0.468  0.504  0.525  0.436  0.433  0.422  0.410  0.397  0.000  0.000
 1988 227    15   177      2     34    117     0     0   125  0.467  0.502  0.522  0.435  0.433  0.422  0.410  0.397  0.000  0.000
 1988 228    16   176      2     34    117     0     0   125  0.467  0.500  0.520  0.434  0.433  0.422  0.410  0.397  0.000  0.000
 1988 229    17   176      2     34    117     0     0   125  0.467  0.498  0.519  0.433  0.432  0.422  0.410  0.397  0.000  0.000
 1988 230    18   175      2     34    117     0     0   125  0.466  0.496  0.517  0.432  0.432  0.422  0.410  0.397  0.000  0.000
 1988 231    19   175      2     34    117     0     0   125  0.466  0.495  0.515  0.431  0.432  0.422  0.410  0.397  0.000  0.000
 1988 232    20   174      2     34    117     0     0   125  0.465  0.494  0.514  0.430  0.432  0.422  0.410  0.397  0.000  0.000
 1988 233    21   190      2     34    136     0     0   125  0.523  0.567  0.549  0.436  0.431  0.422  0.410  0.397  0.000  0.000
 1988 234    22   186      2     35    136     0     0   125  0.469  0.548  0.546  0.438  0.431  0.422  0.410  0.397  0.000  0.000
 1988 235    23   182      2     35    136     0     0   125  0.450  0.527  0.542  0.438  0.431  0.422  0.410  0.397  0.000  0.000
 1988 236    24   180      2     35    136     0     0   125  0.458  0.516  0.537  0.438  0.431  0.422  0.410  0.397  0.000  0.000
 1988 237    25   179      2     35    136     0     0   125  0.461  0.510  0.533  0.437  0.431  0.422  0.410  0.397  0.000  0.000
 1988 238    26   178      2     35    136     0     0   125  0.462  0.506  0.529  0.436  0.431  0.422  0.410  0.397  0.000  0.000
 1988 239    27   177      2     35    136     0     0   125  0.462  0.503  0.526  0.436  0.431  0.422  0.410  0.397  0.000  0.000
 1988 240    28   177      2     35    136     0     0   125  0.463  0.500  0.524  0.435  0.431  0.422  0.410  0.397  0.000  0.000
 1988 241    29   176      2     35    136     0     0   125  0.463  0.498  0.521  0.434  0.430  0.422  0.410  0.397  0.000  0.000
 1988 242    30   175      2     35    136     0     0   125  0.463  0.497  0.519  0.433  0.430  0.422  0.410  0.397  0.000  0.000
 1988 243    31   175      2     35    136     0     0   125  0.463  0.495  0.517  0.432  0.430  0.422  0.410  0.397  0.000  0.000
 1988 244    32   174      2     35    136     0     0   125  0.462  0.493  0.515  0.431  0.430  0.422  0.410  0.397  0.000  0.000
 1988 245    33   173      2     35    136     0     0   125  0.462  0.492  0.514  0.430  0.430  0.422  0.410  0.397  0.000  0.000
 1988 246    34   173      2     35    136     0     0   125  0.461  0.490  0.512  0.429  0.429  0.422  0.410  0.397  0.000  0.000
 1988 247    35   172      2     35    136     0     0   125  0.460  0.489  0.511  0.429  0.429  0.422  0.410  0.397  0.000  0.000
 1988 248    36   172      2     35    136     0     0   125  0.460  0.488  0.509  0.428  0.429  0.422  0.410  0.397  0.000  0.000
 1988 249    37   171      2     35    136     0     0   125  0.460  0.487  0.508  0.427  0.428  0.422  0.410  0.397  0.000  0.000
 1988 250    38   171      2     35    136     0     0   125  0.459  0.486  0.507  0.426  0.428  0.422  0.410  0.397  0.000  0.000
 1988 251    39   181      2     35    148     0     0   125  0.544  0.547  0.508  0.426  0.428  0.422  0.410  0.397  0.000  0.000
 1988 252    40   180      2     35    148     0     0   125  0.515  0.537  0.515  0.426  0.427  0.422  0.410  0.397  0.000  0.000
 1988 253    41   187      2     35    158     0     0   125  0.552  0.556  0.542  0.425  0.427  0.422  0.410  0.397  0.000  0.000
 1988 254    42   195      2     35    166     0     0   125  0.545  0.568  0.566  0.442  0.429  0.422  0.410  0.397  0.000  0.000
 1988 255    43   189      2     38    166     0     0   125  0.492  0.557  0.556  0.440  0.431  0.422  0.410  0.397  0.000  0.000
 1988 256    44   184      2     39    166     0     0   125  0.461  0.533  0.550  0.440  0.431  0.422  0.410  0.397  0.000  0.000
 1988 257    45   181      2     40    166     0     0   125  0.444  0.519  0.541  0.440  0.431  0.422  0.410  0.397  0.000  0.000
 1988 258    46   179      2     40    166     0     0   125  0.444  0.510  0.535  0.440  0.431  0.422  0.410  0.397  0.000  0.000
 1988 259    47   178      2     40    166     0     0   125  0.445  0.504  0.530  0.439  0.431  0.422  0.410  0.397  0.000  0.000
 1988 260    48   176      2     40    166     0     0   125  0.446  0.499  0.526  0.438  0.431  0.422  0.410  0.397  0.000  0.000
 1988 261    49   175      2     40    166     0     0   125  0.447  0.496  0.523  0.437  0.431  0.422  0.410  0.397  0.000  0.000
 1988 262    50   175      2     40    166     0     0   125  0.447  0.493  0.520  0.436  0.431  0.422  0.410  0.397  0.000  0.000
 1988 263    51   174      2     40    166     0     0   125  0.447  0.490  0.517  0.434  0.431  0.422  0.410  0.397  0.000  0.000
 1988 264    52   173      2     40    166     0     0   125  0.447  0.488  0.515  0.433  0.431  0.422  0.410  0.397  0.000  0.000
 1988 265    53   180      2     40    175     0     0   125  0.553  0.516  0.513  0.432  0.430  0.422  0.410  0.397  0.000  0.000
 1988 266    54   222      3     48    227     0     0   125  0.521  0.574  0.570  0.469  0.460  0.447  0.439  0.432  0.000  0.000
 1988 267    55   221      3     65    246     0     0   125  0.539  0.558  0.567  0.470  0.460  0.447  0.439  0.432  0.000  0.000
 1988 268    56   205      3     79    246     0     0   125  0.499  0.549  0.556  0.457  0.449  0.436  0.427  0.417  0.000  0.000
 1988 269    57   195      3     87    246     0     0   125  0.507  0.531  0.548  0.449  0.442  0.429  0.419  0.408  0.000  0.000
 1988 270    58   220      3     90    275     0     0   125  0.562  0.563  0.564  0.470  0.460  0.447  0.439  0.419  0.000  0.000
 1988 271    59   221      3     94    282     0     0   125  0.534  0.566  0.567  0.470  0.460  0.447  0.439  0.429  0.000  0.000
 1988 272    60   203      3    108    282     0     0   125  0.472  0.548  0.556  0.457  0.449  0.436  0.427  0.416  0.000  0.000
 1988 273    61   191      3    116    282     0     0   125  0.456  0.524  0.545  0.449  0.442  0.429  0.419  0.407  0.000  0.000
 1988 274    62   183      3    120    282     0     0   125  0.442  0.511  0.536  0.444  0.437  0.425  0.415  0.402  0.000  0.000
 1988 275    63   179      3    123    282     0     0   125  0.440  0.502  0.528  0.440  0.435  0.423  0.412  0.399  0.000  0.000
 1988 276    64   175      3    124    282     0     0   125  0.438  0.496  0.522  0.438  0.433  0.421  0.410  0.398  0.000  0.000
 1988 277    65   191      3    124    302     0     0   125  0.538  0.562  0.548  0.440  0.434  0.421  0.411  0.398  0.000  0.000
 1988 278    66   185      3    126    302     0     0   125  0.472  0.547  0.540  0.439  0.433  0.421  0.411  0.398  0.000  0.000
 1988 279    67   181      3    126    302     0     0   125  0.473  0.521  0.533  0.436  0.433  0.421  0.411  0.398  0.000  0.000
 1988 280    68   177      3    126    302     0     0   125  0.452  0.509  0.523  0.434  0.433  0.421  0.411  0.398  0.000  0.000
 1988 281    69   173      3    126    302     0     0   125  0.445  0.496  0.514  0.430  0.432  0.421  0.411  0.398  0.000  0.000
 1988 282    70   170      3    126    302     0     0   125  0.438  0.486  0.506  0.427  0.431  0.421  0.411  0.398  0.000  0.000
 1988 283    71   168      3    126    302     0     0   125  0.432  0.480  0.502  0.425  0.431  0.421  0.411  0.398  0.000  0.000
 1988 284    72   165      3    126    302     0     0   125  0.426  0.471  0.494  0.421  0.429  0.421  0.411  0.398  0.000  0.000
 1988 285    73   163      3    126    304     0     0   125  0.443  0.463  0.487  0.417  0.428  0.421  0.411  0.398  0.000  0.000
 1988 286    74   159      3    126    304     0     0   125  0.428  0.455  0.479  0.412  0.426  0.421  0.411  0.398  0.000  0.000
 1988 287    75   156      3    126    304     0     0   125  0.418  0.450  0.473  0.408  0.424  0.421  0.411  0.398  0.000  0.000
 1988 288    76   153      3    126    304     0     0   125  0.409  0.443  0.467  0.403  0.422  0.421  0.411  0.398  0.000  0.000
 1988 289    77   151      3    126    304     0     0   125  0.401  0.437  0.461  0.399  0.420  0.421  0.411  0.398  0.000  0.000
 1988 290    78   147      3    126    304     0     0   125  0.393  0.430  0.454  0.393  0.416  0.420  0.411  0.398  0.000  0.000
 1988 291    79   172      3    126    304     1    29   125  0.536  0.563  0.495  0.388  0.413  0.420  0.411  0.398  0.000  0.000
 1988 292    80   167      3    126    304     1    29   125  0.493  0.537  0.499  0.384  0.409  0.420  0.411  0.398  0.000  0.000
 1988 293    81   165      3    126    304     1    29   125  0.503  0.515  0.497  0.384  0.407  0.420  0.411  0.398  0.000  0.000
 1988 294    82   159      3    126    304     1    29   125  0.472  0.502  0.490  0.381  0.402  0.420  0.411  0.398  0.000  0.000
 1988 295    83   154      3    126    304     1    29   125  0.445  0.489  0.483  0.379  0.397  0.419  0.411  0.398  0.000  0.000
 1988 296    84   151      3    126    304     1    29   125  0.434  0.478  0.478  0.377  0.393  0.419  0.411  0.398  0.000  0.000
 1988 297    85   145      3    126    304     1    29   125  0.411  0.464  0.468  0.374  0.386  0.418  0.411  0.398  0.000  0.000
 1988 298    86   140      3    126    304     1    29   125  0.397  0.451  0.458  0.371  0.380  0.417  0.411  0.398  0.000  0.000
 1988 299    87   142      3    126    308     1    29   125  0.479  0.443  0.453  0.370  0.379  0.417  0.411  0.398  0.000  0.000
 1988 300    88   137      3    126    308     1    29   125  0.441  0.439  0.444  0.367  0.375  0.415  0.411  0.398  0.000  0.000
 1988 301    89   131      3    126    308     1    29   125  0.407  0.429  0.434  0.364  0.372  0.413  0.411  0.398  0.000  0.000
 1988 302    90   157      3    126    308     2    61   125  0.540  0.558  0.486  0.361  0.368  0.410  0.410  0.398  0.000  0.000
 1988 303    91   151      3    126    308     2    61   125  0.510  0.531  0.485  0.360  0.366  0.407  0.410  0.398  0.000  0.000
 1988 304    92   149      3    126    308     2    61   125  0.515  0.515  0.484  0.361  0.366  0.405  0.410  0.398  0.000  0.000
 1988 305    93   174      3    126    338     2    61   125  0.544  0.555  0.561  0.421  0.364  0.402  0.410  0.398  0.000  0.000
 1988 306    94   168      3    126    338     2    61   125  0.519  0.542  0.544  0.425  0.364  0.398  0.410  0.398  0.000  0.000
 1988 307    95   162      3    126    338     2    61   125  0.515  0.528  0.534  0.418  0.365  0.394  0.409  0.398  0.000  0.000
 1988 308    96   156      3    126    338     2    61   125  0.499  0.518  0.523  0.410  0.365  0.389  0.409  0.398  0.000  0.000
 1988 309    97   150      3    126    338     2    61   125  0.485  0.507  0.513  0.402  0.364  0.384  0.409  0.398  0.000  0.000
 1988 310    98   144      3    126    338     2    61   125  0.469  0.495  0.502  0.394  0.363  0.380  0.408  0.398  0.000  0.000
 1988 311    99   137      3    126    338     2    61   125  0.459  0.482  0.491  0.385  0.362  0.376  0.408  0.398  0.000  0.000
 1988 312   100   131      3    126    338     2    61   125  0.439  0.469  0.478  0.377  0.360  0.372  0.407  0.398  0.000  0.000
 1988 313   101   126      3    126    338     2    61   125  0.427  0.458  0.468  0.373  0.359  0.369  0.407  0.398  0.000  0.000
 1988 314   102   119      3    126    338     2    61   125  0.415  0.443  0.454  0.368  0.357  0.366  0.406  0.398  0.000  0.000
 1988 315   103   115      3    126    338     2    61   125  0.408  0.431  0.443  0.365  0.355  0.364  0.406  0.398  0.000  0.000
 1988 316   104   155      3    126    352     3    91   125  0.562  0.559  0.557  0.387  0.354  0.362  0.405  0.398  0.000  0.000
 1988 317   105   170      3    126    372     3    91   125  0.551  0.558  0.554  0.465  0.385  0.360  0.405  0.397  0.000  0.000
 1988 318   106   163      3    126    372     3    91   125  0.528  0.541  0.539  0.442  0.402  0.359  0.404  0.397  0.000  0.000
 1988 319   107   157      3    126    372     3    91   125  0.522  0.528  0.530  0.430  0.395  0.357  0.404  0.397  0.000  0.000
 1988 320   108   151      3    126    372     3    91   125  0.510  0.518  0.521  0.420  0.387  0.357  0.403  0.397  0.000  0.000
 1988 321   109   144      3    126    372     3    91   125  0.498  0.508  0.511  0.410  0.381  0.356  0.400  0.397  0.000  0.000
 1988 322   110   137      3    126    372     3    91   125  0.483  0.496  0.499  0.400  0.376  0.354  0.396  0.397  0.000  0.000
 1988 323   111   135      3    126    372     3    91   125  0.482  0.490  0.495  0.396  0.375  0.354  0.394  0.397  0.000  0.000
 1988 324   112   145      3    126    388     3    91   125  0.554  0.558  0.511  0.387  0.372  0.353  0.390  0.396  0.000  0.000
 1988 325   113   140      3    126    388     3    91   125  0.536  0.538  0.512  0.383  0.370  0.353  0.385  0.396  0.000  0.000
 1988 326   114   150      3    126    400     3    91   125  0.564  0.559  0.554  0.392  0.369  0.353  0.383  0.395  0.000  0.000
 1988 327   115   157      3    126    412     3    91   125  0.558  0.563  0.556  0.440  0.372  0.352  0.378  0.395  0.000  0.000
 1988 328   116   151      3    126    412     3    91   125  0.538  0.550  0.540  0.429  0.383  0.351  0.372  0.394  0.000  0.000
 1988 329   117   144      3    126    412     3    91   125  0.524  0.538  0.532  0.418  0.379  0.350  0.367  0.394  0.000  0.000
 1988 330   118   138      3    126    412     3    91   125  0.517  0.523  0.521  0.408  0.375  0.349  0.363  0.393  0.000  0.000
 1988 331   119   134      3    126    412     3    91   125  0.510  0.515  0.514  0.403  0.373  0.348  0.362  0.392  0.000  0.000
 1988 332   120   128      3    126    412     3    91   125  0.495  0.504  0.503  0.394  0.370  0.348  0.359  0.392  0.000  0.000
 1988 333   121   122      3    126    412     3    91   125  0.481  0.492  0.492  0.384  0.367  0.347  0.357  0.391  0.000  0.000
 1988 334   122   115      3    126    412     3    91   125  0.465  0.479  0.480  0.377  0.364  0.346  0.355  0.390  0.000  0.000
 1988 335   123   109      3    126    412     3    91   125  0.446  0.464  0.466  0.371  0.361  0.345  0.353  0.390  0.000  0.000
 1988 336   124   103      3    126    412     3    91   125  0.432  0.451  0.454  0.367  0.359  0.344  0.351  0.389  0.000  0.000
 1988 337   125    97      3    126    412     3    91   125  0.417  0.437  0.441  0.364  0.357  0.343  0.349  0.387  0.000  0.000
 1988 338   126   120      3    126    412     4   120   125  0.553  0.551  0.484  0.359  0.354  0.342  0.347  0.384  0.000  0.000
 1988 339   127   112      3    126    412     4   120   125  0.522  0.523  0.477  0.358  0.352  0.340  0.345  0.380  0.000  0.000
 1988 340   128   104      3    126    412     4   120   125  0.490  0.499  0.462  0.355  0.350  0.339  0.343  0.374  0.000  0.000
 1988 341   129    98      3    126    412     4   120   125  0.472  0.482  0.451  0.354  0.348  0.338  0.342  0.369  0.000  0.000
 1988 342   130    94      3    126    412     4   120   125  0.462  0.471  0.445  0.353  0.347  0.338  0.342  0.366  0.000  0.000
 1988 343   131    93      3    126    416     4   120   125  0.526  0.458  0.435  0.352  0.346  0.337  0.341  0.363  0.000  0.000
 1988 344   132    87      3    126    416     4   120   125  0.479  0.453  0.424  0.350  0.345  0.337  0.339  0.358  0.000  0.000
 1988 345   133    81      3    126    416     4   120   125  0.445  0.437  0.416  0.348  0.343  0.336  0.338  0.353  0.000  0.000
 1988 346   134   105      3    126    416     5   152   125  0.531  0.546  0.490  0.345  0.341  0.334  0.336  0.348  0.000  0.000
 1988 347   135   103      3    126    416     5   152   125  0.533  0.526  0.490  0.346  0.341  0.334  0.336  0.347  0.000  0.000
 1988 348   136   129      3    126    449     5   152   125  0.537  0.550  0.556  0.445  0.344  0.333  0.335  0.344  0.000  0.000
 1988 349   137   122      3    126    449     5   152   125  0.516  0.532  0.538  0.428  0.356  0.333  0.334  0.342  0.000  0.000
 1988 350   138   115      3    126    449     5   152   125  0.501  0.517  0.523  0.414  0.355  0.332  0.333  0.340  0.000  0.000
 1988 351   139   108      3    126    449     5   152   125  0.484  0.502  0.509  0.402  0.355  0.332  0.332  0.338  0.000  0.000
 1988 352   140   103      3    126    449     5   152   125  0.474  0.492  0.499  0.394  0.354  0.332  0.331  0.336  0.000  0.000
 1988 353   141    96      3    126    449     5   152   125  0.453  0.478  0.485  0.382  0.353  0.331  0.331  0.335  0.000  0.000
 1988 354   142    91      3    126    449     5   152   125  0.438  0.466  0.474  0.376  0.352  0.331  0.330  0.333  0.000  0.000
 1988 355   143    89      3    126    453     5   152   125  0.496  0.450  0.460  0.370  0.350  0.330  0.329  0.332  0.000  0.000
 1988 356   144    82      3    126    453     5   152   125  0.453  0.442  0.444  0.365  0.349  0.329  0.328  0.330  0.000  0.000
 1988 357   145    77      3    126    453     5   152   125  0.428  0.432  0.434  0.362  0.348  0.329  0.328  0.329  0.000  0.000
 1988 358   146   101      3    126    453     6   182   125  0.540  0.554  0.485  0.358  0.346  0.328  0.327  0.327  0.000  0.000
 1988 359   147    93      3    126    453     6   182   125  0.504  0.522  0.475  0.356  0.344  0.328  0.326  0.325  0.000  0.000
 1988 360   148    85      3    126    453     6   182   125  0.474  0.493  0.459  0.354  0.343  0.327  0.325  0.324  0.000  0.000
 1988 361   149    78      3    126    453     6   182   125  0.445  0.472  0.445  0.352  0.341  0.327  0.324  0.322  0.000  0.000
 1988 362   150    75      3    126    453     6   182   125  0.431  0.458  0.437  0.351  0.341  0.326  0.324  0.322  0.000  0.000
 1988 363   151    69      3    126    453     6   182   125  0.408  0.441  0.425  0.349  0.340  0.326  0.323  0.321  0.000  0.000
 1988 364   152    94      3    126    453     7   214   125  0.543  0.543  0.486  0.346  0.338  0.325  0.322  0.319  0.000  0.000
 1988 365   153    87      3    126    453     7   214   125  0.502  0.518  0.474  0.346  0.337  0.325  0.321  0.318  0.000  0.000
 1988 366   154    79      3    126    453     7   214   125  0.464  0.491  0.458  0.345  0.336  0.324  0.321  0.317  0.000  0.000
 1989 001   155    71      3    126    453     7   214   125  0.422  0.466  0.440  0.344  0.335  0.323  0.320  0.316  0.000  0.000
 1989 002   156    63      3    126    453     7   214   125  0.397  0.440  0.421  0.342  0.334  0.323  0.319  0.315  0.000  0.000
 1989 003   157    88      3    126    453     8   246   125  0.534  0.537  0.483  0.340  0.332  0.322  0.318  0.314  0.000  0.000
 1989 004   158    80      3    126    453     8   246   125  0.478  0.509  0.468  0.340  0.331  0.321  0.317  0.313  0.000  0.000
 1989 005   159    71      3    126    453     8   246   125  0.433  0.480  0.451  0.340  0.330  0.321  0.317  0.312  0.000  0.000
 1989 006   160    66      3    126    453     8   246   125  0.415  0.460  0.438  0.339  0.330  0.321  0.316  0.311  0.000  0.000
 1989 007   161    61      3    126    453     8   246   125  0.390  0.442  0.426  0.339  0.329  0.320  0.316  0.311  0.000  0.000
 1989 008   162    86      3    126    453     9   278   125  0.536  0.545  0.485  0.337  0.328  0.320  0.315  0.310  0.000  0.000
 1989 009   163    79      3    126    453     9   278   125  0.483  0.517  0.474  0.338  0.328  0.319  0.315  0.310  0.000  0.000
 1989 010   164    73      3    126    453     9   278   125  0.447  0.491  0.462  0.339  0.327  0.319  0.314  0.309  0.000  0.000
 1989 011   165    66      3    126    453     9   278   125  0.401  0.469  0.449  0.338  0.327  0.319  0.314  0.309  0.000  0.000
 1989 012   166    59      3    126    453     9   278   125  0.373  0.446  0.432  0.338  0.326  0.318  0.314  0.308  0.000  0.000
 1989 013   167    84      3    126    453    10   310   125  0.526  0.544  0.483  0.337  0.326  0.318  0.313  0.307  0.000  0.000
 1989 014   168    76      3    126    453    10   310   125  0.476  0.515  0.472  0.337  0.325  0.317  0.313  0.307  0.000  0.000

*DSSAT Cropping System Model Ver. 4.0.2.000               Aug 03, 2016; 15:38:57

*RUN   3        : UYMZ                    
 MODEL          : MZCER040 - Maize           
 EXPERIMENT     : UYMZ0133 MZ    late to create DSS                             
 TREATMENT  1   : UYMZ                    

@YEAR DOY   DAS  SWXD   ROFC   DRNC   PREC  IR#C  IRRC  DTWT   SW1D   SW2D   SW3D   SW4D   SW5D   SW6D   SW7D   SW8D   SW9D   SW10
 1989 212     0   115      0      0      0     0     0   125  0.338  0.394  0.394  0.335  0.375  0.419  0.408  0.395  0.000  0.000
 1989 213     1   112      0      0      0     0     0   125  0.281  0.393  0.394  0.335  0.376  0.418  0.408  0.395  0.000  0.000
 1989 214     2   111      0      0      0     0     0   125  0.252  0.391  0.394  0.336  0.376  0.418  0.408  0.395  0.000  0.000
 1989 215     3   154      0      0      0     1    45   125  0.538  0.566  0.474  0.336  0.377  0.417  0.408  0.395  0.000  0.000
 1989 216     4   158      0      0      6     1    45   125  0.531  0.556  0.508  0.338  0.377  0.417  0.408  0.395  0.000  0.000
 1989 217     5   155      0      0      6     1    45   125  0.475  0.538  0.513  0.342  0.378  0.416  0.408  0.395  0.000  0.000
 1989 218     6   153      0      0      6     1    45   125  0.469  0.517  0.511  0.345  0.378  0.416  0.408  0.395  0.000  0.000
 1989 219     7   150      0      0      6     1    45   125  0.448  0.507  0.508  0.348  0.378  0.415  0.408  0.395  0.000  0.000
 1989 220     8   149      0      0      6     1    45   125  0.450  0.498  0.504  0.351  0.379  0.415  0.408  0.395  0.000  0.000
 1989 221     9   169      0      0     27     1    45   125  0.565  0.562  0.546  0.359  0.379  0.415  0.408  0.395  0.000  0.000
 1989 222    10   173      0      0     33     1    45   125  0.531  0.568  0.561  0.379  0.380  0.414  0.408  0.395  0.000  0.000
 1989 223    11   173      0      0     33     1    45   125  0.528  0.553  0.554  0.393  0.380  0.414  0.407  0.395  0.000  0.000
 1989 224    12   169      0      0     33     1    45   125  0.475  0.542  0.546  0.404  0.382  0.414  0.407  0.395  0.000  0.000
 1989 225    13   167      0      0     33     1    45   125  0.475  0.526  0.538  0.408  0.383  0.413  0.407  0.395  0.000  0.000
 1989 226    14   165      0      0     33     1    45   125  0.461  0.518  0.532  0.409  0.384  0.413  0.407  0.395  0.000  0.000
 1989 227    15   164      0      0     33     1    45   125  0.460  0.510  0.527  0.410  0.385  0.413  0.407  0.395  0.000  0.000
 1989 228    16   163      0      0     33     1    45   125  0.460  0.505  0.522  0.411  0.387  0.412  0.407  0.395  0.000  0.000
 1989 229    17   162      0      0     33     1    45   125  0.459  0.500  0.518  0.411  0.388  0.412  0.407  0.395  0.000  0.000
 1989 230    18   161      0      0     33     1    45   125  0.458  0.497  0.515  0.411  0.389  0.412  0.407  0.395  0.000  0.000
 1989 231    19   160      0      0     33     1    45   125  0.457  0.494  0.512  0.411  0.390  0.412  0.407  0.395  0.000  0.000
 1989 232    20   178      0      0     52     1    45   125  0.558  0.565  0.546  0.415  0.391  0.411  0.407  0.395  0.000  0.000
 1989 233    21   179      0      0     54     1    45   125  0.546  0.565  0.548  0.422  0.392  0.411  0.407  0.395  0.000  0.000
 1989 234    22   219      1      2     98     1    45   125  0.545  0.568  0.566  0.471  0.462  0.447  0.439  0.411  0.000  0.000
 1989 235    23   203      1     15     98     1    45   125  0.493  0.557  0.557  0.458  0.449  0.436  0.427  0.405  0.000  0.000
 1989 236    24   194      1     23     98     1    45   125  0.495  0.534  0.550  0.450  0.442  0.429  0.419  0.401  0.000  0.000
 1989 237    25   187      1     27     98     1    45   125  0.474  0.525  0.543  0.445  0.438  0.425  0.415  0.399  0.000  0.000
 1989 238    26   183      1     29     98     1    45   125  0.457  0.518  0.539  0.442  0.435  0.423  0.412  0.397  0.000  0.000
 1989 239    27   180      1     30     98     1    45   125  0.457  0.511  0.534  0.440  0.433  0.421  0.410  0.397  0.000  0.000
 1989 240    28   179      1     30     98     1    45   125  0.458  0.506  0.530  0.439  0.433  0.421  0.410  0.397  0.000  0.000
 1989 241    29   178      1     30     98     1    45   125  0.458  0.503  0.527  0.438  0.433  0.421  0.410  0.397  0.000  0.000
 1989 242    30   177      1     30     98     1    45   125  0.458  0.500  0.524  0.437  0.433  0.421  0.410  0.397  0.000  0.000
 1989 243    31   199      1     31    122     1    45   125  0.556  0.566  0.565  0.457  0.440  0.422  0.412  0.398  0.000  0.000
 1989 244    32   190      1     36    122     1    45   125  0.476  0.556  0.556  0.449  0.436  0.421  0.410  0.398  0.000  0.000
 1989 245    33   185      1     38    122     1    45   125  0.467  0.530  0.548  0.445  0.434  0.421  0.410  0.398  0.000  0.000
 1989 246    34   182      1     39    122     1    45   125  0.456  0.519  0.541  0.442  0.433  0.421  0.410  0.398  0.000  0.000
 1989 247    35   180      1     39    122     1    45   125  0.456  0.512  0.536  0.440  0.433  0.421  0.410  0.398  0.000  0.000
 1989 248    36   179      1     39    122     1    45   125  0.458  0.507  0.531  0.439  0.433  0.421  0.410  0.398  0.000  0.000
 1989 249    37   187      1     39    134     1    45   125  0.517  0.557  0.536  0.438  0.433  0.421  0.410  0.398  0.000  0.000
 1989 250    38   184      1     39    134     1    45   125  0.472  0.537  0.540  0.438  0.433  0.421  0.410  0.398  0.000  0.000
 1989 251    39   181      1     39    134     1    45   125  0.456  0.522  0.536  0.437  0.433  0.421  0.410  0.398  0.000  0.000
 1989 252    40   179      1     39    134     1    45   125  0.457  0.512  0.532  0.437  0.433  0.421  0.410  0.398  0.000  0.000
 1989 253    41   178      1     39    134     1    45   125  0.457  0.506  0.528  0.436  0.433  0.421  0.410  0.398  0.000  0.000
 1989 254    42   182      1     39    140     1    45   125  0.556  0.509  0.525  0.435  0.433  0.421  0.410  0.398  0.000  0.000
 1989 255    43   181      1     39    140     1    45   125  0.503  0.523  0.525  0.434  0.432  0.421  0.410  0.398  0.000  0.000
 1989 256    44   181      1     39    141     1    45   125  0.508  0.518  0.524  0.434  0.432  0.421  0.410  0.398  0.000  0.000
 1989 257    45   179      1     39    141     1    45   125  0.481  0.516  0.523  0.433  0.432  0.421  0.410  0.398  0.000  0.000
 1989 258    46   179      1     39    144     1    45   125  0.506  0.508  0.520  0.433  0.432  0.421  0.410  0.398  0.000  0.000
 1989 259    47   177      1     39    144     1    45   125  0.480  0.509  0.519  0.432  0.431  0.421  0.410  0.398  0.000  0.000
 1989 260    48   175      1     39    144     1    45   125  0.469  0.502  0.516  0.431  0.431  0.421  0.410  0.398  0.000  0.000
 1989 261    49   174      1     39    144     1    45   125  0.462  0.496  0.512  0.430  0.431  0.421  0.410  0.398  0.000  0.000
 1989 262    50   172      1     39    144     1    45   125  0.455  0.491  0.509  0.429  0.430  0.421  0.410  0.398  0.000  0.000
 1989 263    51   170      1     39    144     1    45   125  0.448  0.485  0.505  0.428  0.430  0.421  0.410  0.398  0.000  0.000
 1989 264    52   168      1     39    144     1    45   125  0.442  0.479  0.501  0.427  0.430  0.421  0.410  0.398  0.000  0.000
 1989 265    53   193      1     39    170     1    45   125  0.553  0.565  0.559  0.438  0.429  0.421  0.410  0.398  0.000  0.000
 1989 266    54   217      1     41    198     1    45   125  0.543  0.566  0.566  0.470  0.461  0.447  0.436  0.409  0.000  0.000
 1989 267    55   203      1     53    198     1    45   125  0.514  0.555  0.555  0.457  0.449  0.436  0.425  0.403  0.000  0.000
 1989 268    56   193      1     60    198     1    45   125  0.497  0.536  0.548  0.449  0.442  0.429  0.418  0.400  0.000  0.000
 1989 269    57   186      1     64    198     1    45   125  0.480  0.524  0.540  0.444  0.437  0.425  0.414  0.398  0.000  0.000
 1989 270    58   180      1     66    198     1    45   125  0.440  0.514  0.532  0.441  0.435  0.423  0.412  0.398  0.000  0.000
 1989 271    59   177      1     67    198     1    45   125  0.437  0.504  0.526  0.439  0.433  0.421  0.410  0.398  0.000  0.000
 1989 272    60   175      1     67    198     1    45   125  0.434  0.494  0.520  0.437  0.433  0.421  0.410  0.398  0.000  0.000
 1989 273    61   172      1     67    198     1    45   125  0.430  0.487  0.514  0.435  0.433  0.421  0.410  0.398  0.000  0.000
 1989 274    62   170      1     67    198     1    45   125  0.426  0.480  0.508  0.433  0.433  0.421  0.410  0.398  0.000  0.000
 1989 275    63   169      1     67    198     1    45   125  0.423  0.476  0.504  0.431  0.433  0.421  0.410  0.398  0.000  0.000
 1989 276    64   166      1     67    198     1    45   125  0.419  0.468  0.497  0.428  0.432  0.421  0.410  0.398  0.000  0.000
 1989 277    65   164      1     67    198     1    45   125  0.414  0.461  0.490  0.425  0.432  0.421  0.410  0.398  0.000  0.000
 1989 278    66   161      1     67    198     1    45   125  0.408  0.453  0.483  0.422  0.431  0.421  0.410  0.398  0.000  0.000
 1989 279    67   159      1     67    198     1    45   125  0.402  0.446  0.477  0.419  0.430  0.421  0.410  0.398  0.000  0.000
 1989 280    68   159      1     67    202     1    45   125  0.446  0.440  0.471  0.416  0.429  0.421  0.410  0.398  0.000  0.000
 1989 281    69   156      1     67    202     1    45   125  0.427  0.437  0.466  0.413  0.428  0.421  0.410  0.398  0.000  0.000
 1989 282    70   153      1     67    202     1    45   125  0.412  0.432  0.459  0.409  0.426  0.421  0.410  0.398  0.000  0.000
 1989 283    71   150      1     67    202     1    45   125  0.401  0.428  0.454  0.406  0.425  0.421  0.410  0.398  0.000  0.000
 1989 284    72   177      1     67    202     2    75   125  0.545  0.565  0.496  0.403  0.423  0.421  0.410  0.398  0.000  0.000
 1989 285    73   176      1     67    203     2    75   125  0.539  0.548  0.506  0.402  0.422  0.421  0.410  0.398  0.000  0.000
 1989 286    74   173      1     67    203     2    75   125  0.514  0.533  0.508  0.401  0.421  0.421  0.410  0.398  0.000  0.000
 1989 287    75   168      1     67    203     2    75   125  0.480  0.516  0.503  0.399  0.419  0.421  0.410  0.398  0.000  0.000
 1989 288    76   164      1     67    203     2    75   125  0.453  0.500  0.496  0.395  0.417  0.420  0.410  0.398  0.000  0.000
 1989 289    77   158      1     67    203     2    75   125  0.421  0.485  0.488  0.391  0.414  0.420  0.410  0.398  0.000  0.000
 1989 290    78   155      1     67    203     2    75   125  0.411  0.474  0.483  0.388  0.411  0.420  0.410  0.398  0.000  0.000
 1989 291    79   151      1     67    203     2    75   125  0.393  0.463  0.476  0.384  0.408  0.420  0.410  0.398  0.000  0.000
 1989 292    80   146      1     67    203     2    75   125  0.381  0.451  0.466  0.380  0.404  0.420  0.410  0.398  0.000  0.000
 1989 293    81   141      1     67    203     2    75   125  0.370  0.438  0.456  0.375  0.398  0.419  0.410  0.398  0.000  0.000
 1989 294    82   167      1     67    203     3   104   125  0.553  0.559  0.493  0.373  0.394  0.419  0.410  0.398  0.000  0.000
 1989 295    83   161      1     67    203     3   104   125  0.508  0.534  0.494  0.371  0.389  0.418  0.410  0.398  0.000  0.000
 1989 296    84   155      1     67    203     3   104   125  0.488  0.510  0.486  0.370  0.384  0.418  0.410  0.398  0.000  0.000
 1989 297    85   153      1     67    203     3   104   125  0.488  0.499  0.483  0.370  0.383  0.417  0.410  0.398  0.000  0.000
 1989 298    86   198      1     67    250     3   104   125  0.561  0.560  0.564  0.470  0.435  0.418  0.410  0.398  0.000  0.000
 1989 299    87   219      2     75    283     3   104   125  0.546  0.562  0.562  0.464  0.456  0.447  0.439  0.432  0.000  0.000
 1989 300    88   201      2     88    283     3   104   125  0.517  0.547  0.547  0.447  0.439  0.436  0.427  0.417  0.000  0.000
 1989 301    89   189      2     94    283     3   104   125  0.509  0.530  0.537  0.435  0.428  0.428  0.419  0.408  0.000  0.000
 1989 302    90   180      2     97    283     3   104   125  0.495  0.519  0.527  0.427  0.420  0.423  0.415  0.403  0.000  0.000
 1989 303    91   176      2     99    283     3   104   125  0.498  0.512  0.522  0.424  0.418  0.421  0.412  0.400  0.000  0.000
 1989 304    92   170      2     99    283     3   104   125  0.484  0.505  0.514  0.417  0.411  0.419  0.410  0.398  0.000  0.000
 1989 305    93   165      2     99    283     3   104   125  0.472  0.496  0.506  0.411  0.405  0.416  0.410  0.398  0.000  0.000
 1989 306    94   163      2     99    283     3   104   125  0.475  0.492  0.502  0.408  0.403  0.415  0.410  0.398  0.000  0.000
 1989 307    95   202      2     99    325     3   104   125  0.566  0.564  0.563  0.467  0.454  0.421  0.411  0.398  0.000  0.000
 1989 308    96   190      2    106    325     3   104   125  0.537  0.548  0.547  0.447  0.437  0.418  0.410  0.397  0.000  0.000
 1989 309    97   183      2    107    325     3   104   125  0.525  0.537  0.538  0.436  0.427  0.415  0.410  0.397  0.000  0.000
 1989 310    98   177      2    107    325     3   104   125  0.518  0.527  0.530  0.429  0.420  0.411  0.410  0.397  0.000  0.000
 1989 311    99   174      2    107    325     3   104   125  0.516  0.522  0.526  0.426  0.417  0.408  0.410  0.397  0.000  0.000
 1989 312   100   168      2    107    325     3   104   125  0.505  0.515  0.519  0.419  0.411  0.404  0.410  0.397  0.000  0.000
 1989 313   101   162      2    107    325     3   104   125  0.494  0.506  0.511  0.412  0.404  0.398  0.409  0.397  0.000  0.000
 1989 314   102   156      2    107    325     3   104   125  0.485  0.498  0.504  0.407  0.398  0.392  0.409  0.397  0.000  0.000
 1989 315   103   154      2    107    325     3   104   125  0.486  0.495  0.501  0.405  0.397  0.391  0.409  0.397  0.000  0.000
 1989 316   104   190      2    107    362     3   104   125  0.567  0.565  0.565  0.468  0.432  0.390  0.408  0.397  0.000  0.000
 1989 317   105   202      2    107    379     3   104   125  0.556  0.562  0.562  0.465  0.455  0.423  0.412  0.398  0.000  0.000
 1989 318   106   190      2    113    379     3   104   125  0.536  0.548  0.548  0.448  0.439  0.415  0.411  0.397  0.000  0.000
 1989 319   107   183      2    114    379     3   104   125  0.526  0.537  0.540  0.437  0.430  0.412  0.410  0.397  0.000  0.000
 1989 320   108   177      2    114    379     3   104   125  0.521  0.529  0.534  0.431  0.423  0.406  0.408  0.397  0.000  0.000
 1989 321   109   171      2    114    379     3   104   125  0.513  0.522  0.526  0.425  0.417  0.400  0.406  0.397  0.000  0.000
 1989 322   110   164      2    114    379     3   104   125  0.504  0.515  0.519  0.419  0.411  0.394  0.402  0.397  0.000  0.000
 1989 323   111   159      2    114    379     3   104   125  0.498  0.508  0.513  0.415  0.407  0.390  0.398  0.397  0.000  0.000
 1989 324   112   155      2    114    379     3   104   125  0.493  0.502  0.508  0.410  0.402  0.387  0.395  0.396  0.000  0.000
 1989 325   113   149      2    114    379     3   104   125  0.485  0.496  0.501  0.405  0.397  0.384  0.390  0.396  0.000  0.000
 1989 326   114   143      2    114    379     3   104   125  0.475  0.488  0.494  0.399  0.390  0.380  0.384  0.396  0.000  0.000
 1989 327   115   153      2    114    396     3   104   125  0.559  0.560  0.512  0.393  0.385  0.378  0.379  0.395  0.000  0.000
 1989 328   116   154      2    114    403     3   104   125  0.552  0.554  0.545  0.391  0.381  0.375  0.374  0.395  0.000  0.000
 1989 329   117   149      2    114    403     3   104   125  0.535  0.542  0.534  0.393  0.378  0.372  0.371  0.394  0.000  0.000
 1989 330   118   144      2    114    403     3   104   125  0.528  0.532  0.526  0.389  0.375  0.370  0.368  0.394  0.000  0.000
 1989 331   119   139      2    114    403     3   104   125  0.516  0.522  0.516  0.384  0.372  0.368  0.365  0.393  0.000  0.000
 1989 332   120   133      2    114    403     3   104   125  0.501  0.509  0.505  0.379  0.369  0.365  0.362  0.392  0.000  0.000
 1989 333   121   128      2    114    403     3   104   125  0.491  0.499  0.496  0.377  0.367  0.364  0.360  0.392  0.000  0.000
 1989 334   122   121      2    114    403     3   104   125  0.474  0.486  0.483  0.372  0.364  0.361  0.358  0.391  0.000  0.000
 1989 335   123   115      2    114    403     3   104   125  0.457  0.472  0.471  0.369  0.362  0.359  0.355  0.389  0.000  0.000
 1989 336   124   111      2    114    403     3   104   125  0.446  0.462  0.462  0.366  0.360  0.358  0.354  0.387  0.000  0.000
 1989 337   125   130      2    114    426     3   104   125  0.558  0.559  0.496  0.365  0.359  0.356  0.353  0.386  0.000  0.000
 1989 338   126   128      2    114    431     3   104   125  0.546  0.547  0.508  0.363  0.356  0.355  0.351  0.383  0.000  0.000
 1989 339   127   122      2    114    431     3   104   125  0.524  0.526  0.500  0.362  0.355  0.353  0.350  0.380  0.000  0.000
 1989 340   128   117      2    114    431     3   104   125  0.508  0.511  0.491  0.362  0.353  0.352  0.348  0.377  0.000  0.000
 1989 341   129   111      2    114    431     3   104   125  0.488  0.495  0.479  0.360  0.352  0.350  0.347  0.374  0.000  0.000
 1989 342   130   104      2    114    431     3   104   125  0.467  0.479  0.466  0.359  0.350  0.349  0.345  0.370  0.000  0.000
 1989 343   131   100      2    114    431     3   104   125  0.455  0.467  0.457  0.357  0.349  0.348  0.344  0.367  0.000  0.000
 1989 344   132    93      2    114    431     3   104   125  0.431  0.450  0.442  0.355  0.348  0.346  0.343  0.363  0.000  0.000
 1989 345   133    86      2    114    431     3   104   125  0.412  0.433  0.427  0.353  0.346  0.345  0.341  0.360  0.000  0.000
 1989 346   134   110      2    114    431     4   136   125  0.551  0.549  0.484  0.349  0.344  0.343  0.339  0.355  0.000  0.000
 1989 347   135   103      2    114    431     4   136   125  0.519  0.521  0.475  0.349  0.343  0.342  0.337  0.352  0.000  0.000
 1989 348   136    96      2    114    431     4   136   125  0.491  0.498  0.461  0.348  0.341  0.340  0.336  0.349  0.000  0.000
 1989 349   137    89      2    114    431     4   136   125  0.463  0.476  0.445  0.347  0.340  0.339  0.335  0.346  0.000  0.000
 1989 350   138    82      2    114    431     4   136   125  0.439  0.458  0.431  0.345  0.339  0.338  0.334  0.344  0.000  0.000
 1989 351   139   143      2    114    496     4   136   125  0.554  0.555  0.561  0.469  0.395  0.338  0.333  0.343  0.000  0.000
 1989 352   140   137      2    114    496     4   136   125  0.527  0.541  0.545  0.446  0.412  0.337  0.333  0.342  0.000  0.000
 1989 353   141   130      2    114    496     4   136   125  0.514  0.527  0.534  0.433  0.406  0.337  0.332  0.340  0.000  0.000
 1989 354   142   123      2    114    496     4   136   125  0.498  0.516  0.523  0.422  0.397  0.337  0.331  0.339  0.000  0.000
 1989 355   143   117      2    114    496     4   136   125  0.483  0.504  0.512  0.413  0.388  0.336  0.331  0.338  0.000  0.000
 1989 356   144   110      2    114    496     4   136   125  0.465  0.491  0.500  0.402  0.381  0.336  0.330  0.337  0.000  0.000
 1989 357   145   103      2    114    496     4   136   125  0.445  0.478  0.488  0.392  0.376  0.335  0.330  0.336  0.000  0.000
 1989 358   146    96      2    114    496     4   136   125  0.425  0.464  0.476  0.381  0.371  0.335  0.329  0.335  0.000  0.000
 1989 359   147    93      2    114    496     4   136   125  0.423  0.457  0.470  0.379  0.370  0.335  0.329  0.334  0.000  0.000
 1989 360   148    88      2    114    496     4   136   125  0.410  0.446  0.460  0.374  0.367  0.334  0.328  0.333  0.000  0.000
 1989 361   149    85      2    114    496     4   136   125  0.401  0.437  0.451  0.371  0.365  0.334  0.328  0.333  0.000  0.000
 1989 362   150    79      2    114    496     4   136   125  0.385  0.424  0.439  0.366  0.362  0.334  0.327  0.332  0.000  0.000
 1989 363   151   107      2    114    496     5   168   125  0.556  0.561  0.485  0.363  0.359  0.333  0.327  0.331  0.000  0.000
 1989 364   152   102      2    114    496     5   168   125  0.522  0.534  0.486  0.362  0.357  0.333  0.326  0.330  0.000  0.000
 1989 365   153    96      2    114    496     5   168   125  0.497  0.511  0.477  0.361  0.355  0.332  0.326  0.329  0.000  0.000
 1990 001   154    90      2    114    496     5   168   125  0.465  0.491  0.466  0.359  0.353  0.332  0.325  0.328  0.000  0.000
 1990 002   155    83      2    114    496     5   168   125  0.431  0.471  0.453  0.357  0.351  0.331  0.325  0.327  0.000  0.000
 1990 003   156    76      2    114    496     5   168   125  0.405  0.450  0.437  0.354  0.349  0.330  0.324  0.326  0.000  0.000
 1990 004   157    98      2    114    496     6   197   125  0.533  0.546  0.484  0.352  0.347  0.330  0.323  0.325  0.000  0.000
 1990 005   158    90      2    114    496     6   197   125  0.486  0.515  0.474  0.351  0.346  0.329  0.322  0.324  0.000  0.000
 1990 006   159    82      2    114    496     6   197   125  0.443  0.488  0.459  0.350  0.344  0.328  0.322  0.324  0.000  0.000
 1990 007   160    76      2    114    496     6   197   125  0.416  0.465  0.445  0.349  0.343  0.328  0.321  0.323  0.000  0.000
 1990 008   161    71      2    114    496     6   197   125  0.392  0.449  0.435  0.348  0.342  0.327  0.321  0.322  0.000  0.000
 1990 009   162    96      2    114    496     7   228   125  0.539  0.549  0.487  0.346  0.341  0.327  0.320  0.322  0.000  0.000
 1990 010   163    90      2    114    496     7   228   125  0.495  0.524  0.482  0.347  0.340  0.326  0.320  0.321  0.000  0.000

*DSSAT Cropping System Model Ver. 4.0.2.000               Aug 03, 2016; 15:38:57

*RUN   4        : UYMZ                    
 MODEL          : MZCER040 - Maize           
 EXPERIMENT     : UYMZ0133 MZ    late to create DSS                             
 TREATMENT  1   : UYMZ                    

@YEAR DOY   DAS  SWXD   ROFC   DRNC   PREC  IR#C  IRRC  DTWT   SW1D   SW2D   SW3D   SW4D   SW5D   SW6D   SW7D   SW8D   SW9D   SW10
 1990 212     0   116      0      0      0     0     0   125  0.346  0.394  0.394  0.335  0.375  0.419  0.408  0.395  0.000  0.000
 1990 213     1   113      0      0      0     0     0   125  0.307  0.393  0.394  0.335  0.376  0.418  0.408  0.395  0.000  0.000
 1990 214     2   111      0      0      0     0     0   125  0.255  0.391  0.394  0.336  0.376  0.418  0.408  0.395  0.000  0.000
 1990 215     3   154      0      0      0     1    45   125  0.535  0.566  0.474  0.336  0.377  0.417  0.408  0.395  0.000  0.000
 1990 216     4   151      0      0      0     1    45   125  0.477  0.544  0.485  0.338  0.377  0.417  0.408  0.395  0.000  0.000
 1990 217     5   149      0      0      0     1    45   125  0.471  0.517  0.487  0.341  0.378  0.416  0.408  0.395  0.000  0.000
 1990 218     6   146      0      0      0     1    45   125  0.447  0.503  0.487  0.343  0.378  0.416  0.408  0.395  0.000  0.000
 1990 219     7   145      0      0      0     1    45   125  0.440  0.493  0.486  0.345  0.378  0.415  0.408  0.395  0.000  0.000
 1990 220     8   144      0      0      0     1    45   125  0.434  0.485  0.484  0.347  0.379  0.415  0.408  0.395  0.000  0.000
 1990 221     9   144      0      0      2     1    45   125  0.455  0.479  0.482  0.349  0.379  0.415  0.408  0.395  0.000  0.000
 1990 222    10   143      0      0      2     1    45   125  0.442  0.476  0.480  0.351  0.379  0.414  0.408  0.395  0.000  0.000
 1990 223    11   142      0      0      2     1    45   125  0.434  0.473  0.478  0.353  0.380  0.414  0.407  0.395  0.000  0.000
 1990 224    12   142      0      0      2     1    45   125  0.427  0.469  0.476  0.354  0.380  0.414  0.407  0.395  0.000  0.000
 1990 225    13   141      0      0      2     1    45   125  0.422  0.465  0.475  0.356  0.380  0.413  0.407  0.395  0.000  0.000
 1990 226    14   140      0      0      2     1    45   125  0.418  0.462  0.473  0.357  0.381  0.413  0.407  0.395  0.000  0.000
 1990 227    15   167      0      0     30     1    45   125  0.545  0.565  0.537  0.359  0.381  0.413  0.407  0.395  0.000  0.000
 1990 228    16   163      0      0     30     1    45   125  0.481  0.554  0.539  0.365  0.382  0.412  0.407  0.395  0.000  0.000
 1990 229    17   161      0      0     30     1    45   125  0.468  0.530  0.537  0.369  0.382  0.412  0.407  0.395  0.000  0.000
 1990 230    18   158      0      0     30     1    45   125  0.454  0.518  0.530  0.373  0.382  0.412  0.407  0.395  0.000  0.000
 1990 231    19   157      0      0     30     1    45   125  0.454  0.509  0.523  0.376  0.383  0.411  0.407  0.395  0.000  0.000
 1990 232    20   156      0      0     30     1    45   125  0.453  0.502  0.518  0.379  0.383  0.411  0.407  0.395  0.000  0.000
 1990 233    21   155      0      0     30     1    45   125  0.452  0.496  0.513  0.381  0.384  0.411  0.407  0.395  0.000  0.000
 1990 234    22   154      0      0     30     1    45   125  0.450  0.492  0.508  0.383  0.385  0.411  0.407  0.395  0.000  0.000
 1990 235    23   153      0      0     30     1    45   125  0.447  0.488  0.504  0.384  0.385  0.410  0.407  0.395  0.000  0.000
 1990 236    24   152      0      0     30     1    45   125  0.445  0.484  0.501  0.386  0.386  0.410  0.406  0.395  0.000  0.000
 1990 237    25   151      0      0     30     1    45   125  0.443  0.480  0.498  0.387  0.386  0.410  0.406  0.395  0.000  0.000
 1990 238    26   150      0      0     30     1    45   125  0.440  0.477  0.495  0.388  0.387  0.410  0.406  0.395  0.000  0.000
 1990 239    27   191      0      0     72     1    45   125  0.551  0.565  0.565  0.471  0.409  0.410  0.406  0.395  0.000  0.000
 1990 240    28   190      0      0     74     1    45   125  0.507  0.562  0.561  0.464  0.428  0.410  0.406  0.395  0.000  0.000
 1990 241    29   186      0      0     74     1    45   125  0.474  0.539  0.553  0.454  0.431  0.419  0.407  0.394  0.000  0.000
 1990 242    30   181      0      1     74     1    45   125  0.445  0.523  0.544  0.447  0.431  0.419  0.408  0.395  0.000  0.000
 1990 243    31   180      0      2     74     1    45   125  0.460  0.514  0.539  0.443  0.431  0.419  0.408  0.395  0.000  0.000
 1990 244    32   181      0      2     77     1    45   125  0.507  0.510  0.534  0.441  0.433  0.419  0.408  0.395  0.000  0.000
 1990 245    33   179      0      2     77     1    45   125  0.478  0.514  0.531  0.440  0.433  0.419  0.408  0.395  0.000  0.000
 1990 246    34   178      0      2     77     1    45   125  0.472  0.510  0.529  0.439  0.433  0.419  0.408  0.395  0.000  0.000
 1990 247    35   177      0      2     77     1    45   125  0.470  0.507  0.526  0.438  0.433  0.419  0.408  0.395  0.000  0.000
 1990 248    36   176      0      2     77     1    45   125  0.469  0.504  0.524  0.437  0.433  0.419  0.408  0.395  0.000  0.000
 1990 249    37   177      0      2     78     1    45   125  0.487  0.502  0.522  0.435  0.433  0.419  0.408  0.395  0.000  0.000
 1990 250    38   184      0      2     86     1    45   125  0.556  0.542  0.520  0.434  0.433  0.419  0.408  0.395  0.000  0.000
 1990 251    39   200      0      2    104     1    45   125  0.545  0.563  0.572  0.466  0.443  0.422  0.411  0.395  0.000  0.000
 1990 252    40   191      0      7    104     1    45   125  0.459  0.553  0.559  0.455  0.438  0.422  0.411  0.395  0.000  0.000
 1990 253    41   185      0     10    104     1    45   125  0.461  0.527  0.549  0.448  0.435  0.422  0.411  0.395  0.000  0.000
 1990 254    42   207      0     10    128     1    45   125  0.544  0.564  0.563  0.470  0.460  0.430  0.417  0.399  0.000  0.000
 1990 255    43   195      0     18    128     1    45   125  0.484  0.553  0.554  0.457  0.449  0.426  0.413  0.397  0.000  0.000
 1990 256    44   188      0     23    128     1    45   125  0.478  0.529  0.547  0.449  0.442  0.423  0.411  0.397  0.000  0.000
 1990 257    45   183      0     25    128     1    45   125  0.455  0.519  0.540  0.445  0.437  0.421  0.410  0.397  0.000  0.000
 1990 258    46   180      0     26    128     1    45   125  0.454  0.511  0.534  0.442  0.435  0.421  0.410  0.397  0.000  0.000
 1990 259    47   178      0     27    128     1    45   125  0.454  0.505  0.530  0.439  0.433  0.421  0.410  0.397  0.000  0.000
 1990 260    48   177      0     27    128     1    45   125  0.454  0.501  0.526  0.438  0.433  0.421  0.410  0.397  0.000  0.000
 1990 261    49   207      0     27    160     1    45   125  0.549  0.564  0.565  0.468  0.460  0.429  0.416  0.400  0.000  0.000
 1990 262    50   196      0     35    160     1    45   125  0.494  0.554  0.554  0.456  0.449  0.425  0.413  0.398  0.000  0.000
 1990 263    51   190      0     40    160     1    45   125  0.505  0.532  0.548  0.449  0.442  0.423  0.411  0.398  0.000  0.000
 1990 264    52   186      0     42    160     1    45   125  0.505  0.527  0.541  0.444  0.437  0.421  0.411  0.398  0.000  0.000
 1990 265    53   182      0     43    160     1    45   125  0.454  0.522  0.536  0.441  0.435  0.421  0.411  0.398  0.000  0.000
 1990 266    54   179      0     43    160     1    45   125  0.454  0.510  0.530  0.439  0.433  0.421  0.411  0.398  0.000  0.000
 1990 267    55   177      0     43    160     1    45   125  0.452  0.502  0.524  0.438  0.433  0.421  0.411  0.398  0.000  0.000
 1990 268    56   175      0     43    160     1    45   125  0.449  0.495  0.519  0.436  0.433  0.421  0.411  0.398  0.000  0.000
 1990 269    57   173      0     43    160     1    45   125  0.445  0.489  0.514  0.434  0.433  0.421  0.411  0.398  0.000  0.000
 1990 270    58   172      0     43    160     1    45   125  0.441  0.484  0.509  0.432  0.433  0.421  0.411  0.398  0.000  0.000
 1990 271    59   171      0     43    160     1    45   125  0.438  0.481  0.507  0.431  0.432  0.421  0.411  0.398  0.000  0.000
 1990 272    60   169      0     43    160     1    45   125  0.434  0.476  0.502  0.429  0.432  0.421  0.411  0.398  0.000  0.000
 1990 273    61   167      0     43    160     1    45   125  0.430  0.470  0.496  0.427  0.432  0.421  0.411  0.398  0.000  0.000
 1990 274    62   164      0     43    160     1    45   125  0.425  0.464  0.490  0.424  0.431  0.421  0.411  0.398  0.000  0.000
 1990 275    63   162      0     43    160     1    45   125  0.420  0.457  0.483  0.421  0.430  0.421  0.411  0.398  0.000  0.000
 1990 276    64   159      0     43    160     1    45   125  0.414  0.450  0.476  0.418  0.429  0.421  0.411  0.398  0.000  0.000
 1990 277    65   157      0     43    160     1    45   125  0.409  0.443  0.469  0.416  0.428  0.421  0.411  0.398  0.000  0.000
 1990 278    66   156      0     43    160     1    45   125  0.403  0.441  0.467  0.414  0.428  0.421  0.411  0.398  0.000  0.000
 1990 279    67   177      0     43    184     1    45   125  0.552  0.564  0.484  0.412  0.427  0.421  0.411  0.398  0.000  0.000
 1990 280    68   181      0     43    189     1    45   125  0.552  0.556  0.513  0.412  0.426  0.421  0.411  0.398  0.000  0.000
 1990 281    69   216      1     44    228     1    45   125  0.545  0.558  0.567  0.470  0.460  0.447  0.433  0.407  0.000  0.000
 1990 282    70   199      1     56    228     1    45   125  0.502  0.546  0.546  0.453  0.447  0.436  0.423  0.402  0.000  0.000
 1990 283    71   189      1     62    228     1    45   125  0.496  0.526  0.534  0.444  0.440  0.429  0.417  0.399  0.000  0.000
 1990 284    72   184      1     65    228     1    45   125  0.499  0.517  0.529  0.439  0.436  0.425  0.413  0.398  0.000  0.000
 1990 285    73   215      1     67    266     1    45   125  0.540  0.557  0.557  0.464  0.459  0.447  0.439  0.411  0.000  0.000
 1990 286    74   198      1     78    266     1    45   125  0.505  0.540  0.542  0.449  0.446  0.436  0.427  0.405  0.000  0.000
 1990 287    75   187      1     84    266     1    45   125  0.497  0.522  0.530  0.439  0.438  0.429  0.419  0.401  0.000  0.000
 1990 288    76   180      1     87    266     1    45   125  0.481  0.510  0.521  0.432  0.432  0.425  0.415  0.398  0.000  0.000
 1990 289    77   173      1     88    266     1    45   125  0.464  0.499  0.512  0.425  0.427  0.422  0.412  0.397  0.000  0.000
 1990 290    78   169      1     89    266     1    45   125  0.459  0.491  0.507  0.421  0.423  0.421  0.410  0.397  0.000  0.000
 1990 291    79   164      1     89    266     1    45   125  0.440  0.482  0.499  0.413  0.417  0.420  0.410  0.397  0.000  0.000
 1990 292    80   168      1     89    274     1    45   125  0.559  0.490  0.492  0.408  0.413  0.420  0.410  0.397  0.000  0.000
 1990 293    81   170      1     89    279     1    45   125  0.523  0.544  0.489  0.404  0.408  0.419  0.410  0.397  0.000  0.000
 1990 294    82   165      1     89    279     1    45   125  0.518  0.522  0.488  0.398  0.402  0.418  0.410  0.397  0.000  0.000
 1990 295    83   159      1     89    279     1    45   125  0.495  0.508  0.483  0.391  0.395  0.417  0.410  0.397  0.000  0.000
 1990 296    84   155      1     89    279     1    45   125  0.483  0.496  0.478  0.385  0.389  0.415  0.410  0.397  0.000  0.000
[...]
 1992 233    21   138      0      0      6     1    40   125  0.402  0.449  0.466  0.368  0.383  0.411  0.407  0.395  0.000  0.000
 1992 234    22   138      0      0      6     1    40   125  0.400  0.447  0.465  0.368  0.384  0.411  0.407  0.395  0.000  0.000
 1992 235    23   138      0      0      7     1    40   125  0.412  0.445  0.463  0.369  0.384  0.410  0.407  0.395  0.000  0.000
 1992 236    24   140      0      0     13     1    40   125  0.461  0.444  0.462  0.370  0.384  0.410  0.406  0.395  0.000  0.000
 1992 237    25   140      0      0     13     1    40   125  0.446  0.446  0.461  0.371  0.385  0.410  0.406  0.395  0.000  0.000
 1992 238    26   139      0      0     13     1    40   125  0.436  0.447  0.460  0.371  0.385  0.410  0.406  0.395  0.000  0.000
 1992 239    27   139      0      0     13     1    40   125  0.427  0.447  0.459  0.372  0.385  0.410  0.406  0.395  0.000  0.000
 1992 240    28   138      0      0     13     1    40   125  0.421  0.446  0.458  0.372  0.386  0.409  0.406  0.395  0.000  0.000
 1992 241    29   138      0      0     13     1    40   125  0.415  0.444  0.458  0.373  0.386  0.409  0.406  0.394  0.000  0.000
 1992 242    30   137      0      0     13     1    40   125  0.410  0.443  0.457  0.373  0.386  0.409  0.406  0.394  0.000  0.000
 1992 243    31   137      0      0     13     1    40   125  0.406  0.441  0.456  0.374  0.386  0.409  0.406  0.394  0.000  0.000
 1992 244    32   141      0      0     19     1    40   125  0.503  0.439  0.455  0.374  0.387  0.408  0.406  0.394  0.000  0.000
 1992 245    33   141      0      0     19     1    40   125  0.475  0.447  0.455  0.375  0.387  0.408  0.406  0.394  0.000  0.000
 1992 246    34   140      0      0     19     1    40   125  0.457  0.450  0.454  0.375  0.387  0.408  0.405  0.394  0.000  0.000
 1992 247    35   139      0      0     19     1    40   125  0.444  0.450  0.454  0.375  0.387  0.408  0.405  0.394  0.000  0.000
 1992 248    36   138      0      0     19     1    40   125  0.433  0.449  0.454  0.376  0.388  0.408  0.405  0.394  0.000  0.000
 1992 249    37   138      0      0     19     1    40   125  0.425  0.447  0.453  0.376  0.388  0.408  0.405  0.394  0.000  0.000
 1992 250    38   137      0      0     19     1    40   125  0.418  0.444  0.452  0.376  0.388  0.407  0.405  0.394  0.000  0.000
 1992 251    39   136      0      0     19     1    40   125  0.412  0.441  0.451  0.376  0.388  0.407  0.405  0.394  0.000  0.000
 1992 252    40   136      0      0     19     1    40   125  0.407  0.439  0.451  0.377  0.388  0.407  0.405  0.394  0.000  0.000
 1992 253    41   135      0      0     19     1    40   125  0.402  0.437  0.450  0.377  0.389  0.407  0.405  0.394  0.000  0.000
 1992 254    42   134      0      0     19     1    40   125  0.398  0.434  0.448  0.377  0.389  0.407  0.405  0.394  0.000  0.000
 1992 255    43   166      0      0     23     2    69   125  0.537  0.566  0.526  0.377  0.389  0.407  0.405  0.394  0.000  0.000
 1992 256    44   164      0      0     25     2    69   125  0.494  0.550  0.532  0.381  0.389  0.406  0.405  0.394  0.000  0.000
 1992 257    45   162      0      0     25     2    69   125  0.492  0.528  0.530  0.384  0.389  0.406  0.404  0.394  0.000  0.000
 1992 258    46   159      0      0     25     2    69   125  0.470  0.517  0.524  0.387  0.390  0.406  0.404  0.394  0.000  0.000
 1992 259    47   156      0      0     25     2    69   125  0.443  0.507  0.518  0.389  0.390  0.406  0.404  0.394  0.000  0.000
 1992 260    48   154      0      0     25     2    69   125  0.436  0.497  0.512  0.391  0.390  0.406  0.404  0.394  0.000  0.000
 1992 261    49   152      0      0     25     2    69   125  0.431  0.488  0.506  0.392  0.391  0.406  0.404  0.393  0.000  0.000
 1992 262    50   152      0      0     29     2    69   125  0.461  0.480  0.500  0.393  0.391  0.406  0.404  0.393  0.000  0.000
 1992 263    51   150      0      0     29     2    69   125  0.442  0.477  0.495  0.394  0.392  0.405  0.404  0.393  0.000  0.000
 1992 264    52   148      0      0     29     2    69   125  0.429  0.471  0.489  0.394  0.392  0.405  0.404  0.393  0.000  0.000
 1992 265    53   146      0      0     29     2    69   125  0.419  0.463  0.483  0.394  0.392  0.405  0.404  0.393  0.000  0.000
 1992 266    54   157      0      0     41     2    69   125  0.558  0.505  0.480  0.395  0.393  0.405  0.404  0.393  0.000  0.000
 1992 267    55   163      0      0     50     2    69   125  0.496  0.572  0.501  0.394  0.393  0.405  0.404  0.393  0.000  0.000
 1992 268    56   162      0      0     50     2    69   125  0.511  0.533  0.512  0.395  0.393  0.405  0.403  0.393  0.000  0.000
 1992 269    57   175      0      0     68     2    69   125  0.528  0.553  0.563  0.413  0.394  0.405  0.403  0.393  0.000  0.000
 1992 270    58   171      0      0     68     2    69   125  0.487  0.538  0.549  0.426  0.394  0.405  0.403  0.393  0.000  0.000
 1992 271    59   168      0      0     68     2    69   125  0.471  0.523  0.538  0.429  0.396  0.405  0.403  0.393  0.000  0.000
 1992 272    60   164      0      0     68     2    69   125  0.447  0.512  0.530  0.427  0.397  0.405  0.403  0.393  0.000  0.000
 1992 273    61   162      0      0     68     2    69   125  0.441  0.501  0.522  0.426  0.398  0.405  0.403  0.393  0.000  0.000
 1992 274    62   159      0      0     68     2    69   125  0.434  0.491  0.514  0.424  0.399  0.404  0.403  0.393  0.000  0.000
 1992 275    63   157      0      0     68     2    69   125  0.430  0.484  0.509  0.422  0.400  0.404  0.403  0.393  0.000  0.000
 1992 276    64   157      0      0     70     2    69   125  0.450  0.478  0.504  0.420  0.401  0.404  0.403  0.393  0.000  0.000
 1992 277    65   154      0      0     70     2    69   125  0.436  0.474  0.497  0.418  0.401  0.404  0.403  0.392  0.000  0.000
 1992 278    66   152      0      0     70     2    69   125  0.425  0.467  0.491  0.415  0.402  0.404  0.403  0.392  0.000  0.000
 1992 279    67   150      0      0     70     2    69   125  0.419  0.464  0.488  0.413  0.402  0.404  0.403  0.392  0.000  0.000
 1992 280    68   158      0      0     82     2    69   125  0.524  0.501  0.480  0.410  0.403  0.404  0.403  0.392  0.000  0.000
 1992 281    69   154      0      0     82     2    69   125  0.478  0.499  0.478  0.407  0.403  0.404  0.402  0.392  0.000  0.000
 1992 282    70   150      0      0     82     2    69   125  0.432  0.487  0.474  0.404  0.403  0.404  0.402  0.392  0.000  0.000
 1992 283    71   146      0      0     82     2    69   125  0.412  0.473  0.468  0.401  0.402  0.404  0.402  0.392  0.000  0.000
 1992 284    72   142      0      0     82     2    69   125  0.399  0.459  0.462  0.397  0.402  0.404  0.402  0.392  0.000  0.000
 1992 285    73   139      0      0     82     2    69   125  0.389  0.450  0.457  0.393  0.401  0.404  0.402  0.392  0.000  0.000
 1992 286    74   136      0      0     82     2    69   125  0.380  0.439  0.449  0.389  0.400  0.404  0.402  0.392  0.000  0.000
 1992 287    75   160      0      0     82     3    99   125  0.527  0.556  0.491  0.384  0.399  0.404  0.402  0.392  0.000  0.000
 1992 288    76   155      0      0     82     3    99   125  0.486  0.527  0.491  0.381  0.397  0.404  0.402  0.392  0.000  0.000
 1992 289    77   153      0      0     82     3    99   125  0.493  0.508  0.489  0.382  0.396  0.404  0.402  0.392  0.000  0.000
 1992 290    78   181      0      0    112     3    99   125  0.558  0.559  0.565  0.440  0.396  0.404  0.402  0.392  0.000  0.000
 1992 291    79   176      0      0    112     3    99   125  0.513  0.545  0.548  0.433  0.412  0.404  0.402  0.392  0.000  0.000
 1992 292    80   171      0      0    112     3    99   125  0.498  0.528  0.536  0.429  0.410  0.404  0.402  0.392  0.000  0.000
 1992 293    81   169      0      0    112     3    99   125  0.503  0.520  0.530  0.427  0.410  0.404  0.402  0.391  0.000  0.000
 1992 294    82   179      0      0    126     3    99   125  0.544  0.559  0.552  0.432  0.408  0.404  0.402  0.391  0.000  0.000
 1992 295    83   174      0      0    126     3    99   125  0.510  0.545  0.540  0.431  0.409  0.404  0.401  0.391  0.000  0.000
 1992 296    84   169      0      0    126     3    99   125  0.502  0.526  0.532  0.423  0.406  0.404  0.401  0.391  0.000  0.000
 1992 297    85   163      0      0    126     3    99   125  0.482  0.513  0.521  0.416  0.402  0.404  0.401  0.391  0.000  0.000
 1992 298    86   158      0      0    126     3    99   125  0.469  0.500  0.511  0.408  0.398  0.403  0.401  0.391  0.000  0.000
 1992 299    87   156      0      0    126     3    99   125  0.469  0.494  0.506  0.405  0.396  0.403  0.401  0.391  0.000  0.000
 1992 300    88   150      0      0    126     3    99   125  0.445  0.483  0.495  0.396  0.391  0.403  0.401  0.391  0.000  0.000
 1992 301    89   143      0      0    126     3    99   125  0.423  0.470  0.484  0.387  0.386  0.402  0.401  0.391  0.000  0.000
 1992 302    90   143      0      0    128     3    99   125  0.455  0.463  0.479  0.385  0.385  0.402  0.401  0.391  0.000  0.000
 1992 303    91   139      0      0    129     3    99   125  0.452  0.455  0.468  0.379  0.381  0.402  0.401  0.391  0.000  0.000
 1992 304    92   133      0      0    129     3    99   125  0.426  0.446  0.458  0.374  0.378  0.401  0.401  0.391  0.000  0.000
 1992 305    93   128      0      0    129     3    99   125  0.406  0.435  0.447  0.370  0.373  0.399  0.401  0.391  0.000  0.000
 1992 306    94   152      0      0    129     4   128   125  0.551  0.556  0.488  0.366  0.369  0.398  0.401  0.391  0.000  0.000
 1992 307    95   145      0      0    129     4   128   125  0.517  0.529  0.485  0.364  0.366  0.396  0.400  0.391  0.000  0.000
 1992 308    96   158      0      0    146     4   128   125  0.557  0.549  0.545  0.369  0.364  0.394  0.400  0.390  0.000  0.000
 1992 309    97   154      0      0    146     4   128   125  0.531  0.537  0.530  0.375  0.363  0.392  0.400  0.390  0.000  0.000
 1992 310    98   149      0      0    146     4   128   125  0.518  0.525  0.519  0.375  0.362  0.391  0.400  0.390  0.000  0.000
 1992 311    99   144      0      0    146     4   128   125  0.500  0.512  0.508  0.373  0.360  0.389  0.400  0.390  0.000  0.000
 1992 312   100   139      0      0    146     4   128   125  0.482  0.498  0.495  0.370  0.359  0.387  0.400  0.390  0.000  0.000
 1992 313   101   133      0      0    146     4   128   125  0.463  0.484  0.482  0.368  0.357  0.385  0.399  0.390  0.000  0.000
 1992 314   102   127      0      0    146     4   128   125  0.442  0.468  0.468  0.365  0.356  0.383  0.399  0.390  0.000  0.000
 1992 315   103   125      0      0    146     4   128   125  0.440  0.461  0.464  0.364  0.356  0.382  0.399  0.390  0.000  0.000
 1992 316   104   124      0      0    150     4   128   125  0.502  0.448  0.451  0.362  0.354  0.380  0.399  0.390  0.000  0.000
 1992 317   105   118      0      0    150     4   128   125  0.461  0.440  0.437  0.358  0.353  0.378  0.398  0.390  0.000  0.000
 1992 318   106   111      0      0    150     4   128   125  0.431  0.428  0.424  0.356  0.351  0.375  0.398  0.390  0.000  0.000
 1992 319   107   139      0      0    150     5   160   125  0.549  0.559  0.489  0.353  0.349  0.373  0.397  0.390  0.000  0.000
 1992 320   108   161      0      0    177     5   160   125  0.547  0.547  0.560  0.441  0.348  0.371  0.396  0.389  0.000  0.000
 1992 321   109   155      0      0    177     5   160   125  0.526  0.535  0.543  0.429  0.359  0.370  0.395  0.389  0.000  0.000
 1992 322   110   149      0      0    177     5   160   125  0.515  0.525  0.531  0.419  0.359  0.369  0.392  0.389  0.000  0.000
 1992 323   111   144      0      0    177     5   160   125  0.504  0.515  0.520  0.410  0.359  0.368  0.389  0.389  0.000  0.000
 1992 324   112   137      0      0    177     5   160   125  0.490  0.504  0.509  0.401  0.358  0.366  0.384  0.389  0.000  0.000
 1992 325   113   132      0      0    177     5   160   125  0.481  0.495  0.500  0.393  0.358  0.365  0.380  0.388  0.000  0.000
 1992 326   114   130      0      0    177     5   160   125  0.480  0.490  0.496  0.391  0.358  0.365  0.379  0.388  0.000  0.000
 1992 327   115   126      0      0    177     5   160   125  0.468  0.482  0.487  0.384  0.357  0.364  0.376  0.388  0.000  0.000
 1992 328   116   121      0      0    177     5   160   125  0.458  0.473  0.478  0.379  0.357  0.363  0.373  0.387  0.000  0.000
 1992 329   117   116      0      0    177     5   160   125  0.445  0.463  0.468  0.375  0.356  0.362  0.370  0.387  0.000  0.000
 1992 330   118   112      0      0    177     5   160   125  0.433  0.453  0.459  0.371  0.355  0.360  0.368  0.386  0.000  0.000
 1992 331   119   108      0      0    177     5   160   125  0.423  0.443  0.450  0.368  0.354  0.359  0.366  0.386  0.000  0.000
 1992 332   120   101      0      0    177     5   160   125  0.409  0.428  0.436  0.364  0.352  0.357  0.362  0.385  0.000  0.000
 1992 333   121   128      0      0    177     6   191   125  0.559  0.559  0.487  0.360  0.351  0.356  0.360  0.385  0.000  0.000
 1992 334   122   123      0      0    177     6   191   125  0.535  0.534  0.488  0.360  0.350  0.354  0.358  0.384  0.000  0.000
 1992 335   123   152      0      0    211     6   191   125  0.547  0.550  0.560  0.458  0.362  0.353  0.356  0.384  0.000  0.000
 1992 336   124   146      0      0    211     6   191   125  0.524  0.537  0.543  0.438  0.380  0.352  0.355  0.383  0.000  0.000
 1992 337   125   139      0      0    211     6   191   125  0.514  0.525  0.531  0.427  0.377  0.351  0.354  0.382  0.000  0.000
 1992 338   126   134      0      0    211     6   191   125  0.502  0.515  0.521  0.417  0.375  0.350  0.353  0.381  0.000  0.000
 1992 339   127   127      0      0    211     6   191   125  0.486  0.503  0.509  0.406  0.371  0.349  0.351  0.379  0.000  0.000
 1992 340   128   123      0      0    211     6   191   125  0.479  0.494  0.501  0.400  0.370  0.349  0.351  0.378  0.000  0.000
 1992 341   129   147      0      0    241     6   191   125  0.553  0.557  0.557  0.439  0.374  0.348  0.349  0.376  0.000  0.000
 1992 342   130   142      0      0    241     6   191   125  0.531  0.543  0.543  0.429  0.384  0.347  0.349  0.374  0.000  0.000
 1992 343   131   136      0      0    241     6   191   125  0.522  0.531  0.534  0.421  0.381  0.346  0.348  0.372  0.000  0.000
 1992 344   132   132      0      0    241     6   191   125  0.513  0.522  0.525  0.414  0.378  0.346  0.347  0.370  0.000  0.000
 1992 345   133   126      0      0    241     6   191   125  0.501  0.513  0.516  0.406  0.375  0.345  0.346  0.368  0.000  0.000
 1992 346   134   121      0      0    241     6   191   125  0.489  0.503  0.506  0.399  0.373  0.345  0.345  0.366  0.000  0.000
 1992 347   135   115      0      0    241     6   191   125  0.472  0.491  0.495  0.389  0.369  0.344  0.344  0.364  0.000  0.000
 1992 348   136   108      0      0    241     6   191   125  0.453  0.477  0.482  0.380  0.366  0.343  0.343  0.361  0.000  0.000
 1992 349   137   101      0      0    241     6   191   125  0.433  0.463  0.469  0.374  0.363  0.342  0.342  0.359  0.000  0.000
 1992 350   138    95      0      0    241     6   191   125  0.415  0.448  0.455  0.369  0.360  0.341  0.341  0.357  0.000  0.000
 1992 351   139    89      0      0    241     6   191   125  0.408  0.434  0.443  0.365  0.358  0.341  0.340  0.355  0.000  0.000
 1992 352   140   115      0      0    241     7   221   125  0.558  0.558  0.489  0.362  0.356  0.340  0.339  0.354  0.000  0.000
 1992 353   141   108      0      0    241     7   221   125  0.522  0.528  0.485  0.360  0.354  0.339  0.337  0.352  0.000  0.000
 1992 354   142   104      0      0    241     7   221   125  0.508  0.511  0.479  0.359  0.353  0.338  0.337  0.351  0.000  0.000
 1992 355   143    96      0      0    241     7   221   125  0.474  0.489  0.463  0.357  0.350  0.337  0.335  0.349  0.000  0.000
 1992 356   144    90      0      0    241     7   221   125  0.451  0.471  0.450  0.355  0.349  0.337  0.334  0.348  0.000  0.000
 1992 357   145    94      0      0    247     7   221   125  0.552  0.468  0.445  0.355  0.348  0.336  0.334  0.347  0.000  0.000
 1992 358   146    91      0      0    247     7   221   125  0.505  0.476  0.440  0.354  0.347  0.336  0.334  0.346  0.000  0.000
 1992 359   147   115      0      0    278     7   221   125  0.525  0.556  0.543  0.361  0.346  0.335  0.333  0.345  0.000  0.000
 1992 360   148   110      0      0    278     7   221   125  0.515  0.532  0.527  0.366  0.345  0.334  0.332  0.344  0.000  0.000
 1992 361   149   103      0      0    278     7   221   125  0.492  0.511  0.509  0.365  0.344  0.334  0.331  0.343  0.000  0.000
 1992 362   150    97      0      0    278     7   221   125  0.466  0.492  0.492  0.363  0.343  0.333  0.330  0.342  0.000  0.000
 1992 363   151    90      0      0    278     7   221   125  0.438  0.473  0.475  0.360  0.342  0.332  0.329  0.340  0.000  0.000
 1992 364   152    88      0      0    278     7   221   125  0.435  0.465  0.469  0.360  0.341  0.332  0.329  0.340  0.000  0.000
 1992 365   153    91      0      0    283     7   221   125  0.531  0.458  0.463  0.360  0.341  0.332  0.329  0.340  0.000  0.000
 1992 366   154   146      0      0    340     7   221   125  0.532  0.575  0.563  0.469  0.420  0.332  0.329  0.339  0.000  0.000
 1993 001   155   216     17      0    429     7   221   125  0.575  0.580  0.582  0.488  0.458  0.447  0.433  0.356  0.000  0.000
 1993 002   156   218     17      2    435     7   221   125  0.559  0.566  0.566  0.468  0.459  0.446  0.437  0.409  0.000  0.000
 1993 003   157   221     17      5    443     7   221   125  0.558  0.567  0.567  0.469  0.459  0.445  0.437  0.425  0.000  0.000
 1993 004   158   220     17     19    460     7   221   125  0.550  0.566  0.566  0.467  0.458  0.445  0.437  0.430  0.000  0.000
 1993 005   159   201     17     33    460     7   221   125  0.515  0.553  0.553  0.451  0.443  0.431  0.421  0.414  0.000  0.000
 1993 006   160   187     17     39    460     7   221   125  0.497  0.533  0.544  0.441  0.433  0.421  0.411  0.405  0.000  0.000
 1993 007   161   183     17     40    460     7   221   125  0.505  0.524  0.539  0.438  0.431  0.419  0.409  0.400  0.000  0.000
 1993 008   162   204     17     40    486     7   221   125  0.553  0.564  0.562  0.466  0.457  0.427  0.412  0.400  0.000  0.000
 1993 009   163   190     17     47    486     7   221   125  0.507  0.549  0.551  0.449  0.444  0.419  0.405  0.396  0.000  0.000
 1993 010   164   181     17     49    486     7   221   125  0.489  0.529  0.543  0.439  0.435  0.414  0.403  0.394  0.000  0.000
 1993 011   165   174     17     49    486     7   221   125  0.474  0.518  0.535  0.434  0.429  0.410  0.398  0.392  0.000  0.000
 1993 012   166   166     17     49    486     7   221   125  0.445  0.508  0.526  0.429  0.424  0.405  0.394  0.391  0.000  0.000
 1993 013   167   160     17     49    486     7   221   125  0.433  0.498  0.519  0.425  0.420  0.402  0.390  0.389  0.000  0.000
 1993 014   168   156     17     49    486     7   221   125  0.427  0.490  0.514  0.422  0.417  0.399  0.388  0.388  0.000  0.000
 1993 015   169   201     17     49    538     7   221   125  0.536  0.560  0.561  0.465  0.456  0.435  0.406  0.386  0.000  0.000
 1993 016   170   192     17     54    538     7   221   125  0.510  0.547  0.551  0.452  0.444  0.426  0.405  0.394  0.000  0.000
 1993 017   171   184     17     57    538     7   221   125  0.494  0.531  0.543  0.443  0.435  0.420  0.405  0.394  0.000  0.000
 1993 018   172   179     17     57    538     7   221   125  0.490  0.521  0.536  0.438  0.431  0.417  0.405  0.393  0.000  0.000
