*SOIL NITROGEN DAILY OUTPUT FILE

*DSSAT Cropping System Model Ver. 4.0.2.000               Aug 03, 2016; 15:38:57

*RUN   1        : UYMZ                    
 MODEL          : MZCER040 - Maize           
 EXPERIMENT     : UYMZ0133 MZ    late to create DSS                             
 TREATMENT  1   : UYMZ                    

@YEAR DOY   DAS  NAPC  NI#M    NLCC   NIAD    NOAD   NITD   NHTD  NI1D  NI2D  NI3D  NI4D  NI5D  NI6D  NI7D  NI8D  NI9D  NI10  NH1D  NH2D  NH3D  NH4D  NH5D  NH6D  NH7D  NH8D  NH9D  NH10    NMNC    NITC    NDNC    NIMC    AMLC
 1987 212     0     0     0     0.0   99.2   16646   76.2   23.0  15.7  15.2  15.1   8.6   4.6   0.0   0.1   0.1   0.0   0.0   0.8   1.4   1.5   1.5   1.5  1.50  1.47  1.46  0.00  0.00    0.42    1.34    0.00    0.00    0.00
 1987 213     1     0     0     0.0   99.6   16645   77.3   22.3  16.1  15.4  15.2   8.7   4.6   0.0   0.1   0.1   0.0   0.0   0.5   1.3   1.4   1.4   1.4  1.51  1.43  1.41  0.00  0.00    0.83    2.45    0.00    0.00    0.00
 1987 214     2     0     0     0.0  100.0   16645   78.3   21.7  16.4  15.5  15.3   8.7   4.7   0.1   0.1   0.2   0.0   0.0   0.3   1.1   1.4   1.4   1.4  1.51  1.40  1.37  0.00  0.00    1.26    3.47    0.00    0.00    0.00
 1987 215     3     0     0     0.0  100.5   16644   79.3   21.2   5.7  16.0  18.8   8.8   4.7   0.1   0.2   0.2   0.0   0.0   0.2   1.1   1.4   1.3   1.3  1.51  1.37  1.33  0.00  0.00    1.71    4.45    0.00    0.00    0.00
 1987 216     4     1     1     0.0  101.9   16644   80.5   21.3   6.7  15.5  19.2   8.9   4.8   0.1   0.2   0.2   0.0   0.0   0.9   1.1   1.4   1.3   1.3  1.51  1.34  1.29  0.00  0.00    2.19    5.24    0.00    0.00    0.10
 1987 217     5     3     2     0.0  104.3   16643   82.7   21.6   7.1  14.6  20.6   9.1   4.8   0.1   0.3   0.3   0.0   0.0   2.1   1.0   1.4   1.2   1.2  1.52  1.31  1.25  0.00  0.00    2.66    6.38    0.00    0.00    0.15
 1987 218     6     3     2     0.0  104.7   16643   83.5   21.2   5.8  13.9  21.0   9.7   4.9   0.1   0.3   0.3   0.0   0.0   2.0   1.1   1.3   1.2   1.2  1.52  1.28  1.21  0.00  0.00    3.14    7.18    0.00    0.00    0.19
 1987 219     7     3     2     0.0  105.1   16642   84.1   21.0   4.0  11.8  19.8  12.6   5.1   0.1   0.3   0.4   0.0   0.0   1.8   1.1   1.4   1.2   1.2  1.52  1.25  1.18  0.00  0.00    3.58    7.82    0.00    0.00    0.23
 1987 220     8     3     2     0.0  105.5   16642   85.0   20.4   4.9  11.6  19.4  12.5   5.7   0.2   0.4   0.4   0.0   0.0   0.8   1.1   1.5   1.2   1.2  1.52  1.23  1.15  0.00  0.00    4.00    8.73    0.00    0.00    0.29
 1987 221     9     3     2     0.0  105.8   16642   85.7   20.1   5.3  11.6  19.2  12.5   6.0   0.2   0.4   0.4   0.0   0.0   0.4   1.2   1.5   1.2   1.1  1.53  1.20  1.11  0.00  0.00    4.41    9.39    0.00    0.00    0.35
 1987 222    10     3     2     0.0  106.2   16641   86.4   19.8   5.7  11.6  19.1  12.5   6.2   0.2   0.4   0.5   0.0   0.0   0.1   1.1   1.6   1.2   1.1  1.53  1.18  1.08  0.00  0.00    4.84   10.09    0.00    0.00    0.43
 1987 223    11     3     2     0.0  106.6   16641   87.0   19.6   6.0  11.6  19.1  12.5   6.3   0.2   0.5   0.5   0.0   0.0   0.0   1.0   1.6   1.2   1.1  1.53  1.15  1.05  0.00  0.00    5.30   10.70    0.01    0.00    0.47
 1987 224    12     3     2     0.0  107.1   16640   87.8   19.3   5.6  11.9  19.3  12.5   6.3   0.2   0.5   0.5   0.0   0.0   0.1   0.9   1.6   1.2   1.0  1.53  1.13  1.02  0.00  0.00    5.79   11.46    0.01    0.00    0.49
 1987 225    13     3     2     0.0  107.6   16640   88.5   19.1   5.5  11.8  19.5  12.6   6.4   0.2   0.6   0.6   0.0   0.0   0.1   1.0   1.5   1.2   1.0  1.54  1.11  0.99  0.00  0.00    6.30   12.17    0.01    0.00    0.50
 1987 226    14     3     2     0.0  108.1   16639   89.1   19.0   4.2  11.2  19.7  13.0   6.7   0.3   0.6   0.6   0.0   0.0   0.1   1.0   1.6   1.1   1.0  1.54  1.08  0.96  0.00  0.00    6.82   12.77    0.01    0.00    0.53
 1987 227    15     3     2     0.0  108.6   16639   89.5   19.1   3.4  10.4  19.0  13.6   7.4   0.4   0.6   0.6   0.0   0.0   0.1   1.1   1.7   1.2   1.0  1.54  1.06  0.93  0.00  0.00    7.35   13.21    0.01    0.00    0.53
 1987 228    16     3     2     0.1  109.0   16638   89.7   19.3   3.4  10.2  18.6  13.3   7.6   0.6   0.7   0.7   0.0   0.0   0.1   1.1   1.7   1.2   1.0  1.56  1.04  0.91  0.00  0.00    7.87   13.52    0.01    0.00    0.53
 1987 229    17     3     2     0.2  109.4   16638   89.9   19.5   3.6  10.1  18.3  13.1   7.7   0.8   0.7   0.7   0.0   0.0   0.1   1.2   1.8   1.2   1.0  1.57  1.04  0.88  0.00  0.00    8.37   13.80    0.05    0.00    0.53
 1987 230    18     3     2     0.2  109.7   16637   90.2   19.5   3.8  10.1  18.2  13.0   7.8   0.8   0.7   0.7   0.0   0.0   0.1   1.1   1.8   1.2   1.0  1.58  1.04  0.87  0.00  0.00    8.82   14.19    0.13    0.00    0.53
 1987 231    19     3     2     0.2  110.1   16637   90.5   19.6   4.1  10.2  18.2  12.9   7.8   0.9   0.7   0.7   0.0   0.0   0.1   1.0   1.9   1.2   1.0  1.60  1.04  0.87  0.00  0.00    9.24   14.55    0.16    0.00    0.54
 1987 232    20     3     2     0.2  110.4   16636   90.9   19.5   4.4  10.2  18.3  12.9   7.8   0.9   0.7   0.7   0.0   0.0   0.1   0.9   1.8   1.2   1.0  1.61  1.04  0.86  0.00  0.00    9.62   15.01    0.19    0.00    0.54
 1987 233    21     3     2     0.2  110.8   16636   91.3   19.4   4.7  10.2  18.4  12.9   7.8   0.9   0.7   0.7   0.0   0.0   0.1   0.9   1.8   1.2   1.0  1.62  1.04  0.85  0.00  0.00    9.97   15.44    0.20    0.00    0.54
 1987 234    22     3     2     0.2  110.9   16636   91.5   19.4   4.9  10.1  18.5  12.9   7.8   0.9   0.7   0.8   0.0   0.0   0.1   0.8   1.7   1.2   1.1  1.63  1.04  0.85  0.00  0.00   10.31   15.84    0.21    0.00    0.54
 1987 235    23     3     2     0.2  111.3   16635   92.0   19.3   5.1  10.2  18.5  12.9   7.9   0.9   0.7   0.8   0.0   0.0   0.1   0.8   1.7   1.3   1.1  1.65  1.04  0.84  0.00  0.00   10.70   16.28    0.22    0.00    0.55
 1987 236    24     3     2     0.2  111.7   16635   92.5   19.2   5.4  10.2  18.6  13.0   7.9   0.9   0.7   0.8   0.0   0.0   0.1   0.7   1.7   1.2   1.1  1.66  1.04  0.84  0.00  0.00   11.13   16.82    0.23    0.00    0.55
 1987 237    25    25     3     0.2  134.1   16634  104.1   30.0  25.5  10.3  18.7  13.1   7.9   0.9   0.8   0.8   0.0   0.0  19.8   0.7   1.6   1.2   1.1  1.67  1.04  0.83  0.00  0.00   11.60   17.39    0.23    0.00    0.59
 1987 238    26    25     3     0.2  134.6   16634  112.2   22.4  39.4  10.4  18.7  13.1   7.9   0.9   0.8   0.8   0.0   0.0   6.2   0.7   1.6   1.1   1.1  1.69  1.05  0.82  0.00  0.00   12.13   25.55    0.24    0.00    0.62
 1987 239    27    25     3     0.2  135.1   16633  115.5   19.7  44.3  10.5  18.8  13.2   7.9   0.9   0.8   0.8   0.0   0.0   1.5   0.6   1.6   1.1   1.1  1.70  1.05  0.82  0.00  0.00   12.69   28.78    0.25    0.00    0.65
 1987 240    28    25     3     0.2  135.7   16633  116.7   18.9  20.4  15.7  19.8  14.5   9.3   1.4   0.8   0.8   0.0   0.0   0.3   0.6   1.5   1.1   1.1  1.72  1.05  0.81  0.00  0.00   13.27   30.05    0.25    0.00    0.68
 1987 241    29    25     3     1.0  135.3   16632  116.0   19.3   9.1  13.2  17.9  14.1  10.7   3.2   1.5   1.1   0.0   0.0   0.3   0.7   1.6   1.1   1.1  1.73  1.05  0.81  0.00  0.00   13.84   30.22    0.34    0.00    0.72
 1987 242    30    25     3     1.5  135.1   16632  115.5   19.7   9.1  13.0  17.6  13.7  10.5   3.4   1.7   1.1   0.0   0.0   0.3   0.8   1.7   1.1   1.2  1.75  1.05  0.80  0.00  0.00   14.39   30.37    0.49    0.00    0.77
 1987 243    31    25     3     1.9  135.1   16631  115.3   19.8   9.3  12.8  17.4  13.4  10.5   3.6   1.8   1.2   0.0   0.0   0.0   0.8   1.7   1.1   1.2  1.76  1.06  0.80  0.00  0.00   14.89   30.62    0.58    0.00    0.86
 1987 244    32    25     3     2.1  135.3   16631  115.3   20.0   9.6  12.8  17.3  13.3  10.4   3.6   1.8   1.2   0.0   0.0   0.1   0.8   1.8   1.2   1.2  1.78  1.06  0.80  0.00  0.00   15.37   30.92    0.63    0.00    0.86
 1987 245    33    25     3     2.2  135.6   16630  115.5   20.1  10.1  12.7  17.3  13.2  10.4   3.6   1.9   1.2   0.0   0.0   0.1   0.7   1.8   1.2   1.2  1.79  1.06  0.79  0.00  0.00   15.82   31.24    0.69    0.00    0.88
 1987 246    34    25     3     2.2  135.9   16630  115.9   20.1  10.5  12.7  17.4  13.2  10.3   3.6   1.9   1.2   0.0   0.0   0.1   0.7   1.8   1.2   1.2  1.80  1.06  0.79  0.00  0.00   16.25   31.70    0.72    0.00    0.90
 1987 247    35    25     3     2.2  136.3   16629  116.3   20.0  10.8  12.6  17.5  13.2  10.4   3.6   1.9   1.2   0.0   0.0   0.1   0.7   1.7   1.2   1.2  1.82  1.06  0.78  0.00  0.00   16.70   32.16    0.73    0.00    0.90
 1987 248    36    25     3     2.2  136.7   16629  116.7   20.0  11.2  12.6  17.5  13.2  10.4   3.6   1.9   1.2   0.0   0.0   0.1   0.6   1.7   1.2   1.2  1.83  1.06  0.78  0.00  0.00   17.16   32.64    0.75    0.00    0.90
 1987 249    37    25     3     2.2  137.2   16628  117.3   19.9  11.5  12.6  17.6  13.3  10.4   3.7   1.9   1.2   0.0   0.0   0.1   0.6   1.7   1.2   1.2  1.84  1.06  0.77  0.00  0.00   17.62   33.19    0.76    0.00    0.90
 1987 250    38    25     3     2.2  137.6   16628  117.8   19.8  11.8  12.7  17.7  13.4  10.4   3.7   1.9   1.2   0.0   0.0   0.1   0.6   1.6   1.1   1.3  1.86  1.06  0.77  0.00  0.00   18.06   33.72    0.77    0.00    0.90
 1987 251    39    25     3     2.2  138.0   16628  118.3   19.8  12.1  12.7  17.8  13.4  10.4   3.7   1.9   1.3   0.0   0.0   0.1   0.6   1.6   1.1   1.3  1.87  1.06  0.76  0.00  0.00   18.53   34.26    0.78    0.00    0.91
 1987 252    40    25     3     2.2  138.5   16627  118.8   19.7  12.5  12.7  17.8  13.5  10.4   3.7   1.9   1.3   0.0   0.0   0.1   0.6   1.5   1.1   1.3  1.88  1.07  0.76  0.00  0.00   19.01   34.80    0.79    0.00    0.91
 1987 253    41    25     3     2.2  139.0   16627  119.4   19.6  12.8  12.8  17.9  13.5  10.5   3.7   2.0   1.3   0.0   0.0   0.1   0.6   1.5   1.0   1.3  1.89  1.07  0.75  0.00  0.00   19.51   35.36    0.80    0.00    0.91
 1987 254    42    25     3     2.2  139.4   16626  119.8   19.6  13.0  12.8  18.0  13.6  10.5   3.7   2.0   1.3   0.0   0.0   0.1   0.5   1.5   1.0   1.3  1.91  1.07  0.75  0.00  0.00   20.02   35.92    0.81    0.00    0.91
 1987 255    43    25     3     2.2  139.7   16625  120.2   19.5  13.2  12.8  18.0  13.6  10.5   3.7   2.0   1.3   0.0   0.0   0.1   0.5   1.5   1.0   1.3  1.92  1.07  0.74  0.00  0.00   20.55   36.49    0.82    0.00    0.92
 1987 256    44    25     3     2.2  140.1   16625  120.6   19.5  13.5  12.7  18.1  13.7  10.5   3.7   2.0   1.3   0.0   0.0   0.1   0.5   1.4   1.0   1.3  1.93  1.07  0.74  0.00  0.00   21.08   37.06    0.83    0.00    0.92
 1987 257    45    25     3     2.2  140.5   16624  121.0   19.5  13.7  12.8  18.1  13.7  10.5   3.7   2.0   1.3   0.0   0.0   0.1   0.5   1.4   0.9   1.3  1.95  1.07  0.73  0.00  0.00   21.63   37.64    0.83    0.00    0.92
 1987 258    46    25     3     2.4  140.7   16624  121.4   19.3   4.7   9.7  16.8  14.3  12.1   5.0   2.5   1.5   0.0   0.0   0.1   0.5   1.4   0.9   1.3  1.96  1.07  0.73  0.00  0.00   22.17   38.30    0.84    0.00    0.92
 1987 259    47    25     3     3.1  140.0   16623  120.4   19.7   4.7   9.5  16.3  13.9  11.9   5.1   2.7   1.6   0.0   0.0   0.1   0.6   1.4   0.9   1.3  1.98  1.07  0.73  0.00  0.00   22.70   38.46    0.93    0.00    0.93
 1987 260    48    25     3     3.5  139.7   16623  119.7   20.0   4.9   9.3  16.0  13.6  11.8   5.2   2.8   1.7   0.0   0.0   0.1   0.7   1.5   1.0   1.3  1.99  1.08  0.72  0.00  0.00   23.22   38.67    0.99    0.00    0.93
 1987 261    49    25     3     3.7  139.9   16622  119.8   20.2   5.2   9.2  16.0  13.5  11.7   5.2   2.9   1.7   0.0   0.0   0.1   0.6   1.6   1.0   1.3  2.00  1.08  0.72  0.00  0.00   23.73   38.99    1.02    0.00    0.93
 1987 262    50    25     3     3.9  140.1   16622  119.9   20.2   5.5   9.2  16.0  13.4  11.7   5.2   2.9   1.7   0.0   0.0   0.1   0.6   1.5   1.0   1.3  2.02  1.08  0.72  0.00  0.00   24.19   39.45    1.04    0.00    0.94
 1987 263    51    25     3     3.9  140.1   16621  119.9   20.2   5.8   9.1  16.0  13.4  11.7   5.2   2.9   1.8   0.0   0.0   0.1   0.6   1.5   1.0   1.3  2.03  1.08  0.71  0.00  0.00   24.64   39.88    1.08    0.00    0.94
 1987 264    52    25     3     3.9  140.3   16621  120.2   20.2   6.1   9.1  16.0  13.4  11.7   5.2   2.9   1.8   0.0   0.0   0.1   0.6   1.5   1.0   1.3  2.04  1.08  0.71  0.00  0.00   25.08   40.31    1.10    0.00    0.94
 1987 265    53    25     3     3.9  140.7   16621  120.5   20.2   6.3   9.1  16.0  13.4  11.7   5.2   2.9   1.8   0.0   0.0   0.1   0.6   1.4   1.0   1.3  2.05  1.08  0.70  0.00  0.00   25.53   40.73    1.11    0.00    0.94
 1987 266    54    25     3     3.9  141.0   16620  120.8   20.1   6.6   9.1  16.0  13.5  11.7   5.2   2.9   1.8   0.0   0.0   0.1   0.5   1.4   1.0   1.4  2.06  1.08  0.70  0.00  0.00   25.97   41.22    1.12    0.00    0.95
 1987 267    55    25     3     3.9  141.3   16620  121.3   20.1   6.8   9.1  16.1  13.5  11.7   5.2   3.0   1.8   0.0   0.0   0.1   0.5   1.4   1.0   1.4  2.08  1.08  0.70  0.00  0.00   26.41   41.69    1.14    0.00    0.95
 1987 268    56    25     3     3.9  141.5   16619  121.4   20.0   7.0   9.1  16.0  13.6  11.7   5.2   3.0   1.8   0.0   0.0   0.1   0.5   1.4   1.0   1.4  2.09  1.08  0.69  0.00  0.00   26.88   42.19    1.15    0.00    0.95
 1987 269    57    25     3     3.9  141.6   16619  121.6   20.0   7.2   9.1  15.9  13.6  11.7   5.2   3.0   1.8   0.0   0.0   0.1   0.5   1.3   0.9   1.4  2.10  1.08  0.69  0.00  0.00   27.38   42.71    1.16    0.00    0.95
 1987 270    58    25     3     3.9  141.7   16618  121.8   20.0   7.3   9.1  15.9  13.7  11.8   5.2   3.0   1.8   0.0   0.0   0.1   0.5   1.3   0.9   1.4  2.11  1.08  0.68  0.00  0.00   27.93   43.28    1.18    0.00    0.96
 1987 271    59    25     3     3.9  141.5   16618  121.5   19.9   7.5   9.0  15.6  13.7  11.8   5.2   3.0   1.8   0.0   0.0   0.1   0.5   1.3   0.9   1.4  2.12  1.08  0.68  0.00  0.00   28.52   43.88    1.19    0.00    0.96
 1987 272    60    25     3     3.9  141.3   16617  121.4   19.9   7.6   9.0  15.4  13.8  11.8   5.2   3.0   1.8   0.0   0.0   0.1   0.5   1.3   0.9   1.4  2.14  1.08  0.68  0.00  0.00   29.12   44.49    1.20    0.00    0.96
 1987 273    61    25     3     3.9  141.3   16616  121.4   19.9   5.7   9.8  15.4  13.8  11.8   5.2   3.0   1.9   0.0   0.0   0.1   0.5   1.2   0.8   1.4  2.15  1.08  0.67  0.00  0.00   29.74   45.11    1.21    0.00    0.97
 1987 274    62    25     3     3.9  141.4   16616  121.5   19.9   5.6   9.6  15.4  13.8  11.9   5.2   3.0   1.9   0.0   0.0   0.2   0.6   1.2   0.8   1.4  2.16  1.08  0.67  0.00  0.00   30.35   45.67    1.22    0.00    0.99
 1987 275    63    25     3     3.9  140.6   16615  120.9   19.7   5.6   9.4  15.1  13.9  12.0   5.2   3.0   1.9   0.0   0.0   0.1   0.6   1.2   0.8   1.3  2.18  1.08  0.66  0.00  0.00   30.93   46.38    1.23    0.00    1.03
 1987 276    64    25     3     3.9  140.2   16615  120.7   19.6   5.6   9.3  14.8  13.9  12.1   5.3   3.0   1.9   0.0   0.0   0.1   0.6   1.2   0.8   1.3  2.19  1.08  0.66  0.00  0.00   31.49   47.00    1.23    0.00    1.04
 1987 277    65    25     3     3.9  140.3   16614  120.8   19.5   5.6   9.3  14.8  13.9  12.1   5.3   3.0   1.9   0.0   0.0   0.1   0.5   1.2   0.8   1.2  2.20  1.08  0.66  0.00  0.00   32.04   47.61    1.24    0.00    1.06
 1987 278    66    25     3     3.9  139.8   16613  120.5   19.4   5.7   9.2  14.5  13.9  12.2   5.3   3.1   1.9   0.0   0.0   0.1   0.5   1.1   0.8   1.2  2.21  1.09  0.65  0.00  0.00   32.60   48.21    1.25    0.00    1.08
 1987 279    67    25     3     3.9  139.0   16613  119.7   19.3   5.6   9.1  14.2  13.8  12.3   5.3   3.1   1.9   0.0   0.0   0.1   0.5   1.1   0.8   1.2  2.23  1.09  0.65  0.00  0.00   33.18   48.83    1.26    0.00    1.10
 1987 280    68    25     3     3.9  138.4   16612  119.2   19.2   5.7   8.9  13.9  13.7  12.3   5.3   3.1   1.9   0.0   0.0   0.1   0.5   1.1   0.7   1.1  2.24  1.09  0.65  0.00  0.00   33.78   49.46    1.27    0.00    1.12
 1987 281    69    25     3     3.9  138.1   16612  118.9   19.1   5.7   8.9  13.7  13.7  12.4   5.3   3.1   1.9   0.0   0.0   0.1   0.5   1.1   0.7   1.1  2.25  1.09  0.64  0.00  0.00   34.39   50.10    1.27    0.00    1.14
 1987 282    70    25     3     3.9  137.0   16611  118.0   19.1   5.7   8.7  13.3  13.6  12.4   5.3   3.1   1.9   0.0   0.0   0.1   0.5   1.1   0.7   1.1  2.26  1.09  0.64  0.00  0.00   35.01   50.74    1.28    0.00    1.16
 1987 283    71    25     3     3.9  135.3   16610  116.3   19.0   5.6   8.4  12.7  13.4  12.5   5.3   3.1   1.9   0.0   0.0   0.1   0.5   1.1   0.7   1.0  2.28  1.09  0.64  0.00  0.00   35.61   51.36    1.29    0.00    1.18
 1987 284    72    25     3     3.9  135.5   16610  116.6   18.9   3.2   8.3  13.6  13.3  12.6   5.3   3.1   1.9   0.0   0.0   0.1   0.5   1.1   0.7   1.0  2.29  1.09  0.63  0.00  0.00   36.24   52.00    1.30    0.00    1.19
 1987 285    73    25     3     3.9  133.7   16609  114.7   19.0   2.2   7.3  13.0  13.6  12.7   5.3   3.1   1.9   0.0   0.0   0.1   0.6   1.0   0.7   1.0  2.30  1.09  0.63  0.00  0.00   36.88   52.52    1.30    0.00    1.21
 1987 286    74    25     3     4.0  129.2   16609  110.0   19.2   1.9   6.4  11.6  12.5  12.8   5.4   3.2   2.0   0.0   0.0   0.1   0.7   1.1   0.7   1.0  2.31  1.09  0.63  0.00  0.00   37.54   52.84    1.31    0.00    1.23
 1987 287    75    25     3     4.1  128.1   16608  108.8   19.3   2.1   6.1  11.2  12.3  12.8   5.4   3.2   2.0   0.0   0.0   0.1   0.6   1.1   0.7   1.0  2.33  1.09  0.62  0.00  0.00   38.18   53.24    1.32    0.00    1.25
 1987 288    76    25     3     4.1  128.4   16607  109.0   19.4   1.7   5.9  11.3  12.3  12.9   5.4   3.2   2.0   0.0   0.0   0.1   0.6   1.1   0.7   1.0  2.34  1.09  0.62  0.00  0.00   38.81   53.77    1.33    0.00    1.27
 1987 289    77    25     3     4.2  127.9   16607  108.1   19.7   1.7   5.8  10.9  12.0  12.8   5.6   3.3   2.0   0.0   0.0   0.1   0.7   1.2   0.8   1.0  2.35  1.09  0.62  0.00  0.00   39.37   53.95    1.34    0.00    1.29
 1987 290    78    25     3     4.2  125.8   16606  105.9   19.9   1.7   5.4  10.3  11.7  12.6   5.6   3.3   2.0   0.0   0.0   0.1   0.7   1.2   0.8   1.0  2.36  1.09  0.61  0.00  0.00   39.91   54.20    1.35    0.00    1.32
 1987 291    79    25     3     4.2  123.2   16606  103.5   19.7   1.7   5.1   9.6  11.4  12.4   5.6   3.3   2.1   0.0   0.0   0.1   0.7   1.2   0.7   1.0  2.37  1.09  0.61  0.00  0.00   40.44   54.72    1.37    0.00    1.34
 1987 292    80    25     3     4.2  120.9   16605  101.3   19.6   1.8   4.8   9.0  11.1  12.1   5.6   3.3   2.1   0.0   0.0   0.1   0.6   1.1   0.7   1.0  2.39  1.09  0.61  0.00  0.00   40.98   55.24    1.38    0.00    1.36
 1987 293    81    25     3     4.2  119.3   16605   99.7   19.5   1.8   4.7   8.6  10.9  11.9   5.6   3.3   2.1   0.0   0.0   0.1   0.6   1.1   0.7   1.0  2.40  1.09  0.60  0.00  0.00   41.55   55.76    1.39    0.00    1.38
 1987 294    82    25     3     4.2  116.3   16604   97.0   19.4   1.8   4.3   7.9  10.6  11.6   5.6   3.3   2.1   0.0   0.0   0.1   0.6   1.0   0.7   1.0  2.41  1.09  0.60  0.00  0.00   42.14   56.39    1.40    0.00    1.40
 1987 295    83    25     3     4.2  113.4   16603   94.2   19.2   1.8   4.0   7.2  10.2  11.3   5.6   3.3   2.1   0.0   0.0   0.1   0.5   1.0   0.7   0.9  2.42  1.09  0.60  0.00  0.00   42.76   57.02    1.41    0.00    1.41
 1987 296    84    25     3     4.2  110.6   16603   91.6   19.0   1.7   3.7   6.6   9.8  10.9   5.6   3.4   2.1   0.0   0.0   0.1   0.5   1.0   0.7   0.9  2.43  1.09  0.59  0.00  0.00   43.39   57.65    1.42    0.00    1.43
 1987 297    85    25     3     4.2  106.6   16602   87.7   18.8   1.6   3.3   5.7   9.3  10.4   5.6   3.4   2.1   0.0   0.0   0.1   0.5   0.9   0.7   0.9  2.45  1.09  0.59  0.00  0.00   44.04   58.30    1.43    0.00    1.45
 1987 298    86    25     3     4.2  103.1   16601   84.4   18.7   1.5   3.0   5.0   8.8  10.0   5.6   3.4   2.1   0.0   0.0   0.1   0.5   0.9   0.6   0.8  2.46  1.09  0.59  0.00  0.00   44.70   58.95    1.44    0.00    1.46
 1987 299    87    25     3     4.2  100.9   16601   82.3   18.6   1.4   2.8   4.6   8.5   9.7   5.6   3.4   2.1   0.0   0.0   0.1   0.4   0.8   0.6   0.8  2.47  1.09  0.59  0.00  0.00   45.33   59.56    1.45    0.00    1.46
 1987 300    88    25     3     4.2   97.9   16600   79.4   18.5   1.4   2.5   4.0   8.1   9.3   5.6   3.4   2.1   0.0   0.0   0.1   0.4   0.8   0.6   0.8  2.48  1.09  0.58  0.00  0.00   45.95   60.17    1.46    0.00    1.47
 1987 301    89    25     3     4.2   95.3   16600   76.9   18.4   1.3   2.2   3.6   7.7   8.9   5.7   3.4   2.1   0.0   0.0   0.1   0.4   0.8   0.6   0.7  2.49  1.09  0.58  0.00  0.00   46.55   60.75    1.47    0.00    1.47
 1987 302    90    25     3     4.2   90.9   16599   72.6   18.3   0.5   1.8   3.1   7.1   8.2   5.6   3.4   2.1   0.0   0.0   0.1   0.4   0.7   0.6   0.7  2.50  1.09  0.58  0.00  0.00   47.11   61.28    1.48    0.00    1.47
 1987 303    91    25     3     4.2   85.4   16598   67.2   18.2   0.4   1.5   2.2   6.3   7.4   5.5   3.4   2.1   0.0   0.0   0.2   0.5   0.7   0.6   0.7  2.47  1.09  0.57  0.00  0.00   47.76   61.67    1.48    0.00    1.47
 1987 304    92    25     3     4.2   80.2   16598   62.5   17.7   0.5   1.2   1.7   5.6   6.7   5.3   3.4   2.1   0.0   0.0   0.1   0.5   0.7   0.6   0.6  2.39  1.09  0.57  0.00  0.00   48.46   62.33    1.49    0.00    1.47
 1987 305    93    25     3     4.2   74.5   16597   57.5   17.0   0.5   0.9   1.2   5.0   6.0   4.9   3.4   2.2   0.0   0.0   0.1   0.5   0.7   0.5   0.6  2.25  1.09  0.57  0.00  0.00   49.17   63.03    1.49    0.00    1.48
 1987 306    94    25     3     4.2   71.4   16596   54.9   16.5   0.5   0.9   1.0   4.6   5.6   4.7   3.5   2.2   0.0   0.0   0.1   0.5   0.7   0.5   0.6  2.15  1.09  0.57  0.00  0.00   49.90   63.76    1.50    0.00    1.48
 1987 307    95    25     3     4.2   67.1   16596   51.2   15.9   0.5   0.8   0.8   4.1   5.0   4.4   3.5   2.2   0.0   0.0   0.1   0.5   0.7   0.5   0.6  2.02  1.09  0.56  0.00  0.00   50.65   64.50    1.50    0.00    1.48
 1987 308    96    25     3     4.2   62.7   16595   47.5   15.3   0.5   0.7   0.6   3.7   4.5   4.0   3.5   2.2   0.0   0.0   0.1   0.5   0.6   0.5   0.6  1.88  1.09  0.56  0.00  0.00   51.37   65.21    1.50    0.00    1.49
 1987 309    97    25     3     4.2   60.4   16594   45.5   14.9   0.4   0.7   0.6   3.4   4.2   3.8   3.5   2.2   0.0   0.0   0.1   0.5   0.7   0.5   0.6  1.80  1.09  0.56  0.00  0.00   52.05   65.86    1.50    0.00    1.49
 1987 310    98    25     3     4.2   57.8   16594   43.1   14.7   0.2   0.5   0.6   3.1   3.9   3.6   3.5   2.2   0.0   0.0   0.2   0.6   0.6   0.5   0.6  1.71  1.09  0.56  0.00  0.00   52.69   66.27    1.51    0.00    1.49
 1987 311    99    25     3     4.2   53.8   16593   39.4   14.4   0.3   0.4   0.4   2.7   3.3   3.2   3.5   2.2   0.0   0.0   0.3   0.6   0.7   0.5   0.5  1.58  1.09  0.55  0.00  0.00   53.34   66.60    1.51    0.00    1.49
 1987 312   100    25     3     4.2   47.9   16592   34.7   13.2   0.6   0.4   0.3   2.0   2.6   2.7   3.5   2.2   0.0   0.0   0.1   0.5   0.6   0.5   0.5  1.39  1.09  0.55  0.00  0.00   53.98   67.33    1.51    0.00    1.50
 1987 313   101    25     3     4.2   43.2   16592   30.7   12.6   0.4   0.4   0.3   1.6   2.0   2.2   3.5   2.2   0.0   0.0   0.2   0.5   0.6   0.5   0.5  1.24  1.09  0.55  0.00  0.00   54.62   67.81    1.51    0.00    1.50
 1987 314   102    25     3     4.2   39.7   16591   27.7   12.0   0.5   0.4   0.3   1.2   1.6   1.8   3.5   2.2   0.0   0.0   0.1   0.5   0.6   0.5   0.5  1.11  1.09  0.55  0.00  0.00   55.24   68.38    1.52    0.00    1.50
 1987 315   103    25     3     4.2   36.9   16591   25.3   11.5   0.4   0.4   0.3   0.9   1.3   1.5   3.5   2.2   0.0   0.0   0.1   0.5   0.6   0.5   0.5  1.01  1.09  0.54  0.00  0.00   55.88   68.90    1.52    0.00    1.50
 1987 316   104    25     3     4.2   34.7   16590   23.5   11.2   0.4   0.4   0.3   0.7   1.0   1.2   3.6   2.2   0.0   0.0   0.1   0.5   0.6   0.5   0.5  0.93  1.09  0.54  0.00  0.00   56.54   69.44    1.52    0.00    1.51
 1987 317   105    25     3     4.2   32.9   16589   22.0   10.9   0.4   0.4   0.3   0.6   0.8   1.0   3.6   2.2   0.0   0.0   0.1   0.5   0.6   0.5   0.5  0.86  1.09  0.54  0.00  0.00   57.21   69.99    1.52    0.00    1.51
 1987 318   106    25     3     4.3   31.4   16589   20.8   10.6   0.1   0.2   0.3   0.4   0.7   1.0   3.6   2.3   0.0   0.0   0.1   0.5   0.6   0.5   0.5  0.81  1.09  0.54  0.00  0.00   57.87   70.55    1.52    0.00    1.51
 1987 319   107    25     3     4.9   30.2   16588   19.2   11.0   0.1   0.3   0.3   0.3   0.6   0.8   3.3   2.4   0.0   0.0   0.2   0.6   0.7   0.5   0.5  0.77  1.10  0.54  0.00  0.00   58.63   70.68    1.53    0.00    1.51
 1987 320   108    25     3     5.0   29.6   16587   18.5   11.1   0.2   0.3   0.3   0.3   0.4   0.6   3.3   2.4   0.0   0.0   0.3   0.7   0.7   0.6   0.5  0.74  1.10  0.53  0.00  0.00   59.41   70.89    1.54    0.00    1.52
 1987 321   109    25     3     5.2   28.9   16587   17.7   11.3   0.2   0.3   0.3   0.3   0.3   0.5   3.2   2.4   0.0   0.0   0.4   0.7   0.8   0.6   0.6  0.71  1.10  0.53  0.00  0.00   60.19   71.11    1.54    0.00    1.52
 1987 322   110    25     3     5.2   28.6   16586   17.6   10.9   0.8   0.3   0.3   0.3   0.3   0.4   3.2   2.4   0.0   0.0   0.0   0.7   0.8   0.6   0.5  0.69  1.10  0.53  0.00  0.00   60.98   71.69    1.55    0.00    1.52
 1987 323   111    25     3     7.1   26.1   16585   15.5   10.6   0.0   0.3   0.3   0.3   0.3   0.4   2.5   2.6   0.0   0.0   0.2   0.5   0.7   0.6   0.5  0.67  1.10  0.53  0.00  0.00   61.77   72.22    1.55    0.00    1.52
 1987 324   112    25     3     8.2   24.9   16584   13.9   11.0   0.0   0.3   0.3   0.2   0.2   0.3   2.2   2.4   0.0   0.0   0.3   0.6   0.8   0.6   0.6  0.67  1.09  0.53  0.00  0.00   62.51   72.33    1.59    0.00    1.52
 1987 325   113    25     3     8.4   24.4   16584   13.4   11.0   0.1   0.3   0.3   0.3   0.3   0.3   2.0   2.4   0.0   0.0   0.4   0.7   0.8   0.6   0.6  0.66  1.06  0.53  0.00  0.00   63.25   72.50    1.61    0.00    1.52
 1987 326   114    25     3     8.8   23.6   16583   12.6   11.0   0.2   0.3   0.3   0.3   0.3   0.3   1.8   2.3   0.0   0.0   0.4   0.7   0.8   0.6   0.6  0.65  1.02  0.53  0.00  0.00   63.96   72.68    1.62    0.00    1.52
 1987 327   115    25     3     8.9   22.8   16582   12.4   10.4   0.6   0.3   0.3   0.3   0.3   0.3   1.5   2.3   0.0   0.0   0.1   0.7   0.7   0.6   0.6  0.63  0.96  0.53  0.00  0.00   64.64   73.22    1.63    0.00    1.53
 1987 328   116    25     3     9.0   21.8   16582   11.8   10.0   0.3   0.3   0.3   0.3   0.3   0.3   1.3   2.3   0.0   0.0   0.1   0.7   0.6   0.6   0.6  0.62  0.90  0.52  0.00  0.00   65.30   73.64    1.64    0.00    1.53
 1987 329   117    25     3     9.0   21.1   16581   11.6    9.6   0.4   0.4   0.3   0.3   0.3   0.3   1.2   2.3   0.0   0.0   0.1   0.5   0.6   0.6   0.5  0.61  0.85  0.52  0.00  0.00   65.95   74.18    1.64    0.00    1.53
 1987 330   118    25     3     9.0   20.5   16581   11.2    9.4   0.3   0.4   0.3   0.3   0.3   0.3   1.1   2.3   0.0   0.0   0.2   0.5   0.6   0.5   0.5  0.61  0.79  0.52  0.00  0.00   66.62   74.67    1.64    0.00    1.53
 1987 331   119    25     3     9.0   20.2   16580   10.9    9.2   0.3   0.4   0.3   0.3   0.3   0.3   0.9   2.3   0.0   0.0   0.3   0.5   0.6   0.5   0.5  0.60  0.74  0.52  0.00  0.00   67.30   75.18    1.64    0.00    1.53
 1987 332   120    25     3     9.0   19.8   16579   10.9    9.0   0.6   0.4   0.3   0.3   0.3   0.3   0.8   2.3   0.0   0.0   0.1   0.5   0.6   0.5   0.5  0.60  0.70  0.52  0.00  0.00   67.99   75.84    1.64    0.00    1.53
 1987 333   121    25     3     9.0   19.4   16579   10.6    8.8   0.4   0.4   0.3   0.3   0.3   0.3   0.8   2.3   0.0   0.0   0.1   0.5   0.6   0.5   0.5  0.59  0.66  0.51  0.00  0.00   68.73   76.42    1.64    0.00    1.54
 1987 334   122    25     3     9.0   19.2   16578   10.5    8.7   0.4   0.4   0.3   0.3   0.3   0.3   0.7   2.3   0.0   0.0   0.1   0.5   0.6   0.5   0.5  0.59  0.63  0.51  0.00  0.00   69.51   77.06    1.64    0.00    1.54
 1987 335   123    25     3     9.0   19.0   16577   10.4    8.6   0.4   0.4   0.3   0.3   0.3   0.3   0.6   2.3   0.0   0.0   0.1   0.5   0.6   0.5   0.5  0.59  0.61  0.51  0.00  0.00   70.34   77.74    1.64    0.00    1.54
 1987 336   124    25     3     9.0   18.9   16576   10.3    8.5   0.5   0.4   0.3   0.3   0.3   0.3   0.6   2.3   0.0   0.0   0.1   0.5   0.6   0.5   0.5  0.59  0.58  0.51  0.00  0.00   71.22   78.50    1.64    0.00    1.54
 1987 337   125    25     3     9.0   18.7   16576   10.2    8.4   0.4   0.5   0.3   0.3   0.3   0.3   0.5   2.3   0.0   0.0   0.1   0.4   0.6   0.5   0.5  0.59  0.56  0.51  0.00  0.00   72.11   79.26    1.64    0.00    1.54
 1987 338   126    25     3     9.0   18.5   16575   10.1    8.4   0.1   0.3   0.3   0.3   0.3   0.3   0.5   2.3   0.0   0.0   0.1   0.4   0.6   0.5   0.5  0.58  0.55  0.50  0.00  0.00   72.97   79.99    1.64    0.00    1.54
 1987 339   127    25     3     9.0   18.4   16574    9.6    8.9   0.1   0.3   0.3   0.3   0.3   0.3   0.4   2.3   0.0   0.0   0.2   0.6   0.7   0.6   0.5  0.59  0.53  0.49  0.00  0.00   73.77   80.15    1.64    0.00    1.55
 1987 340   128    25     3     9.6   18.0   16573    8.7    9.3   0.2   0.3   0.3   0.3   0.2   0.2   0.4   2.1   0.0   0.0   0.3   0.7   0.8   0.6   0.6  0.60  0.53  0.49  0.00  0.00   74.55   80.30    1.64    0.00    1.55
 1987 341   129    25     3     9.7   17.7   16573    8.5    9.1   0.6   0.3   0.3   0.3   0.3   0.2   0.3   2.0   0.0   0.0   0.1   0.7   0.7   0.6   0.6  0.60  0.52  0.49  0.00  0.00   75.29   80.71    1.64    0.00    1.55
 1987 342   130    25     3     9.7   17.2   16572    8.1    9.1   0.3   0.3   0.3   0.3   0.3   0.3   0.3   1.8   0.0   0.0   0.1   0.7   0.7   0.6   0.6  0.60  0.51  0.49  0.00  0.00   76.00   80.93    1.64    0.00    1.55
 1987 343   131    25     3     9.7   16.9   16571    7.8    9.0   0.3   0.3   0.3   0.3   0.3   0.3   0.3   1.7   0.0   0.0   0.2   0.7   0.7   0.6   0.6  0.60  0.51  0.48  0.00  0.00   76.71   81.24    1.65    0.00    1.55
 1987 344   132    25     3     9.7   16.5   16571    7.7    8.8   0.3   0.3   0.3   0.3   0.3   0.3   0.3   1.6   0.0   0.0   0.3   0.7   0.6   0.6   0.6  0.59  0.50  0.47  0.00  0.00   77.44   81.72    1.65    0.00    1.55
 1987 345   133    25     3     9.7   16.2   16570    7.8    8.4   0.7   0.5   0.3   0.3   0.3   0.3   0.3   1.5   0.0   0.0   0.1   0.5   0.6   0.6   0.5  0.59  0.49  0.46  0.00  0.00   78.20   82.56    1.65    0.00    1.56
 1987 346   134    25     3     9.7   15.7   16569    7.4    8.3   0.3   0.4   0.3   0.3   0.3   0.3   0.3   1.5   0.0   0.0   0.1   0.5   0.6   0.5   0.5  0.59  0.49  0.45  0.00  0.00   78.96   83.14    1.65    0.00    1.56
 1987 347   135    25     3     9.7   15.5   16569    7.2    8.2   0.4   0.4   0.3   0.3   0.3   0.3   0.3   1.4   0.0   0.0   0.1   0.5   0.6   0.5   0.5  0.59  0.48  0.44  0.00  0.00   79.72   83.78    1.65    0.00    1.56
 1987 348   136    25     3     9.7   15.2   16568    7.1    8.2   0.4   0.4   0.3   0.3   0.3   0.3   0.3   1.3   0.0   0.0   0.1   0.5   0.6   0.5   0.5  0.59  0.48  0.43  0.00  0.00   80.49   84.40    1.65    0.00    1.56
 1987 349   137    25     3     9.7   15.0   16567    6.9    8.1   0.4   0.4   0.3   0.3   0.3   0.3   0.3   1.2   0.0   0.0   0.1   0.5   0.6   0.5   0.5  0.59  0.47  0.42  0.00  0.00   81.27   85.03    1.65    0.00    1.56
 1987 350   138    25     3     9.7   14.8   16566    6.8    8.1   0.1   0.3   0.3   0.3   0.3   0.3   0.3   1.2   0.0   0.0   0.1   0.5   0.6   0.5   0.5  0.59  0.47  0.41  0.00  0.00   82.04   85.67    1.65    0.00    1.57
 1987 351   139    25     3     9.7   14.7   16566    6.1    8.6   0.1   0.3   0.3   0.3   0.3   0.3   0.3   1.1   0.0   0.0   0.2   0.6   0.7   0.6   0.6  0.59  0.46  0.40  0.00  0.00   82.79   85.81    1.65    0.00    1.57
 1987 352   140    25     3     9.8   14.7   16565    5.8    8.9   0.2   0.3   0.3   0.3   0.2   0.2   0.3   1.0   0.0   0.0   0.3   0.7   0.7   0.6   0.6  0.60  0.47  0.39  0.00  0.00   83.56   85.98    1.65    0.00    1.57
 1987 353   141    25     3     9.8   14.8   16564    6.0    8.7   0.6   0.3   0.3   0.3   0.3   0.2   0.3   1.0   0.0   0.0   0.0   0.7   0.7   0.6   0.6  0.60  0.46  0.38  0.00  0.00   84.31   86.42    1.65    0.00    1.57
 1987 354   142    25     3     9.8   14.5   16564    6.1    8.4   0.3   0.5   0.3   0.3   0.3   0.3   0.3   0.9   0.0   0.0   0.1   0.5   0.6   0.6   0.6  0.60  0.46  0.37  0.00  0.00   85.07   86.98    1.65    0.00    1.57
 1987 355   143    25     3     9.8   14.2   16563    6.0    8.2   0.4   0.4   0.3   0.3   0.3   0.3   0.3   0.9   0.0   0.0   0.1   0.5   0.6   0.6   0.6  0.59  0.46  0.36  0.00  0.00   85.80   87.60    1.65    0.00    1.58
 1987 356   144    25     3     9.8   13.9   16562    5.9    8.1   0.4   0.4   0.3   0.3   0.3   0.3   0.3   0.8   0.0   0.0   0.1   0.5   0.6   0.6   0.6  0.59  0.45  0.35  0.00  0.00   86.53   88.19    1.65    0.00    1.58
 1987 357   145    25     3     9.8   13.8   16562    5.8    8.0   0.4   0.4   0.3   0.3   0.3   0.3   0.3   0.8   0.0   0.0   0.1   0.5   0.6   0.6   0.5  0.59  0.45  0.34  0.00  0.00   87.25   88.78    1.65    0.00    1.58
 1987 358   146    25     3     9.8   13.6   16561    5.7    7.9   0.4   0.4   0.3   0.3   0.3   0.3   0.3   0.7   0.0   0.0   0.1   0.5   0.6   0.5   0.5  0.59  0.44  0.33  0.00  0.00   87.99   89.36    1.65    0.00    1.58
 1987 359   147    25     3     9.8   13.5   16560    5.6    7.8   0.4   0.4   0.3   0.3   0.3   0.3   0.3   0.7   0.0   0.0   0.1   0.5   0.6   0.5   0.5  0.59  0.44  0.32  0.00  0.00   88.73   89.95    1.65    0.00    1.59
 1987 360   148    25     3     9.8   13.3   16560    5.5    7.8   0.4   0.4   0.3   0.3   0.3   0.3   0.3   0.7   0.0   0.0   0.1   0.5   0.6   0.5   0.5  0.59  0.44  0.32  0.00  0.00   89.47   90.54    1.65    0.00    1.59
 1987 361   149    25     3     9.8   13.2   16559    5.5    7.8   0.2   0.3   0.4   0.3   0.3   0.3   0.3   0.6   0.0   0.0   0.1   0.5   0.6   0.5   0.5  0.59  0.43  0.31  0.00  0.00   90.21   91.13    1.65    0.00    1.59
 1987 362   150    25     3     9.8   13.2   16558    5.0    8.2   0.2   0.3   0.3   0.3   0.3   0.3   0.3   0.6   0.0   0.0   0.2   0.6   0.7   0.6   0.6  0.59  0.43  0.30  0.00  0.00   90.99   91.30    1.65    0.00    1.59
 1987 363   151    25     3     9.8   13.4   16557    5.1    8.3   0.5   0.3   0.3   0.3   0.3   0.3   0.3   0.6   0.0   0.0   0.1   0.7   0.7   0.6   0.6  0.59  0.43  0.29  0.00  0.00   91.79   91.70    1.65    0.00    1.59
 1987 364   152    25     3     9.8   13.5   16557    4.9    8.6   0.3   0.3   0.3   0.3   0.3   0.3   0.3   0.5   0.0   0.0   0.2   0.7   0.8   0.6   0.6  0.59  0.42  0.29  0.00  0.00   92.56   91.89    1.65    0.00    1.60
 1987 365   153    25     3     9.8   13.6   16556    4.8    8.8   0.1   0.2   0.3   0.2   0.3   0.3   0.3   0.5   0.0   0.0   0.3   0.8   0.8   0.6   0.6  0.59  0.42  0.28  0.00  0.00   93.33   92.10    1.65    0.00    1.60
 1988 001   154    25     3     9.9   13.7   16555    4.6    9.0   0.2   0.3   0.3   0.2   0.2   0.2   0.3   0.5   0.0   0.0   0.4   0.8   0.9   0.6   0.6  0.60  0.43  0.27  0.00  0.00   94.12   92.27    1.66    0.00    1.60
 1988 002   155    25     3     9.9   13.7   16555    5.0    8.7   0.8   0.3   0.3   0.3   0.3   0.2   0.3   0.5   0.0   0.0   0.0   0.8   0.8   0.6   0.6  0.60  0.42  0.27  0.00  0.00   94.93   92.79    1.66    0.00    1.60
 1988 003   156    25     3     9.9   13.3   16554    4.9    8.4   0.3   0.5   0.3   0.3   0.3   0.3   0.3   0.5   0.0   0.0   0.2   0.5   0.8   0.6   0.6  0.60  0.42  0.26  0.00  0.00   95.75   93.26    1.66    0.00    1.60
 1988 004   157    25     3     9.9   13.2   16553    5.2    8.0   0.5   0.4   0.4   0.3   0.3   0.3   0.3   0.4   0.0   0.0   0.1   0.5   0.7   0.6   0.6  0.60  0.42  0.25  0.00  0.00   96.61   94.07    1.66    0.00    1.60
 1988 005   158    25     3     9.9   12.9   16552    5.1    7.8   0.2   0.4   0.4   0.3   0.3   0.3   0.3   0.4   0.0   0.0   0.1   0.5   0.6   0.6   0.6  0.60  0.42  0.25  0.00  0.00   97.51   94.81    1.66    0.00    1.61
 1988 006   159    25     3     9.9   12.9   16552    4.6    8.3   0.2   0.3   0.3   0.3   0.3   0.3   0.3   0.4   0.0   0.0   0.3   0.6   0.7   0.6   0.6  0.60  0.42  0.24  0.00  0.00   98.40   95.01    1.66    0.00    1.61
 1988 007   160    25     3     9.9   13.1   16551    4.5    8.6   0.3   0.3   0.3   0.3   0.3   0.3   0.3   0.4   0.0   0.0   0.4   0.7   0.8   0.6   0.6  0.60  0.41  0.24  0.00  0.00   99.26   95.25    1.66    0.00    1.61
 1988 008   161    25     3     9.9   13.2   16550    4.8    8.4   0.8   0.3   0.3   0.3   0.3   0.3   0.3   0.4   0.0   0.0   0.0   0.7   0.8   0.6   0.6  0.60  0.41  0.23  0.00  0.00  100.13   95.83    1.66    0.00    1.62
 1988 009   162    25     3     9.9   12.9   16549    4.9    7.9   0.3   0.5   0.4   0.3   0.3   0.3   0.3   0.4   0.0   0.0   0.2   0.5   0.7   0.6   0.6  0.60  0.41  0.23  0.00  0.00  100.98   96.55    1.66    0.00    1.62
 1988 010   163    25     3     9.9   12.6   16549    4.9    7.7   0.5   0.4   0.3   0.3   0.3   0.3   0.3   0.3   0.0   0.0   0.1   0.5   0.6   0.6   0.6  0.60  0.41  0.23  0.00  0.00  101.81   97.28    1.66    0.00    1.62
 1988 011   164    25     3     9.9   12.4   16548    4.8    7.6   0.4   0.4   0.3   0.3   0.3   0.3   0.3   0.3   0.0   0.0   0.1   0.5   0.6   0.6   0.5  0.60  0.41  0.22  0.00  0.00  102.68   97.94    1.66    0.00    1.62
 1988 012   165    25     3     9.9   12.4   16547    4.9    7.6   0.4   0.5   0.3   0.3   0.3   0.3   0.3   0.3   0.0   0.0   0.1   0.5   0.6   0.5   0.5  0.60  0.41  0.22  0.00  0.00  103.59   98.70    1.66    0.00    1.62
 1988 013   166    25     3     9.9   12.4   16546    4.8    7.6   0.1   0.4   0.4   0.3   0.3   0.3   0.3   0.3   0.0   0.0   0.3   0.4   0.6   0.5   0.5  0.60  0.40  0.21  0.00  0.00  104.55   99.40    1.66    0.00    1.63
 1988 014   167    25     3     9.9   12.5   16545    4.4    8.1   0.2   0.3   0.3   0.3   0.3   0.3   0.3   0.3   0.0   0.0   0.3   0.6   0.7   0.6   0.6  0.60  0.40  0.21  0.00  0.00  105.47   99.62    1.66    0.00    1.63
 1988 015   168    25     3     9.9   12.7   16545    4.5    8.2   0.7   0.3   0.3   0.3   0.3   0.3   0.3   0.3   0.0   0.0   0.0   0.7   0.8   0.6   0.6  0.60  0.40  0.21  0.00  0.00  106.41  100.15    1.66    0.00    1.63
 1988 016   169    25     3     9.9   12.6   16544    4.6    8.0   0.3   0.5   0.3   0.3   0.3   0.3   0.3   0.3   0.0   0.0   0.2   0.5   0.8   0.6   0.6  0.60  0.40  0.20  0.00  0.00  107.34  100.70    1.66    0.00    1.63
 1988 017   170    25     3     9.9   12.5   16543    4.8    7.7   0.6   0.4   0.4   0.3   0.3   0.3   0.3   0.3   0.0   0.0   0.1   0.5   0.6   0.6   0.6  0.60  0.39  0.20  0.00  0.00  108.22  101.52    1.66    0.00    1.63
 1988 018   171    25     3     9.9   12.2   16542    4.7    7.6   0.0   0.4   0.4   0.3   0.3   0.3   0.3   0.3   0.0   0.0   0.1   0.5   0.6   0.6   0.5  0.60  0.39  0.20  0.00  0.00  109.12  102.19    1.66    0.00    1.64
 1988 019   172    25     3    10.0   12.2   16542    4.0    8.2   0.0   0.1   0.2   0.2   0.3   0.3   0.3   0.3   0.0   0.0   0.3   0.6   0.7   0.6   0.6  0.61  0.39  0.19  0.00  0.00  110.00  102.33    1.66    0.00    1.64
 1988 020   173    25     3    10.2   12.4   16541    3.8    8.6   0.1   0.1   0.2   0.2   0.2   0.3   0.3   0.3   0.0   0.0   0.4   0.7   0.8   0.6   0.6  0.62  0.40  0.20  0.00  0.00  110.85  102.47    1.66    0.00    1.64
 1988 021   174    25     3    10.7   12.4   16540    3.4    9.0   0.1   0.1   0.2   0.2   0.2   0.2   0.2   0.3   0.0   0.0   0.4   0.8   0.8   0.7   0.6  0.63  0.41  0.20  0.00  0.00  111.66  102.62    1.66    0.00    1.64
 1988 022   175    25     3    10.8   12.8   16539    3.4    9.4   0.2   0.1   0.2   0.2   0.2   0.2   0.2   0.3   0.0   0.0   0.5   0.8   0.9   0.7   0.6  0.64  0.42  0.20  0.00  0.00  112.37  102.74    1.66    0.00    1.65
 1988 023   176    25     3    10.9   13.4   16539    3.7    9.7   0.8   0.2   0.2   0.2   0.2   0.2   0.2   0.2   0.0   0.0   0.0   1.0   1.0   0.7   0.7  0.66  0.43  0.20  0.00  0.00  113.12  103.18    1.68    0.00    1.66
 1988 024   177    25     3    10.9   14.2   16538    3.9   10.3   0.8   0.2   0.2   0.2   0.2   0.2   0.2   0.2   0.0   0.0   0.1   1.0   1.2   0.8   0.7  0.69  0.44  0.21  0.00  0.00  113.90  103.37    1.68    0.00    1.66
 1988 025   178    25     3    10.9   15.0   16537    4.4   10.5   1.0   0.5   0.2   0.2   0.2   0.2   0.2   0.2   0.0   0.0   0.1   0.9   1.3   0.8   0.7  0.71  0.45  0.21  0.00  0.00  114.73  103.95    1.68    0.00    1.67

*DSSAT Cropping System Model Ver. 4.0.2.000               Aug 03, 2016; 15:38:57

*RUN   2        : UYMZ                    
 MODEL          : MZCER040 - Maize           
 EXPERIMENT     : UYMZ0133 MZ    late to create DSS                             
 TREATMENT  1   : UYMZ                    

@YEAR DOY   DAS  NAPC  NI#M    NLCC   NIAD    NOAD   NITD   NHTD  NI1D  NI2D  NI3D  NI4D  NI5D  NI6D  NI7D  NI8D  NI9D  NI10  NH1D  NH2D  NH3D  NH4D  NH5D  NH6D  NH7D  NH8D  NH9D  NH10    NMNC    NITC    NDNC    NIMC    AMLC
 1988 212     0     0     0     0.0   99.5   16645   77.2   22.3  16.6  15.4  15.2   8.6   4.6   0.0   0.1   0.1   0.0   0.0   0.0   1.2   1.5   1.4   1.4  1.50  1.46  1.45  0.00  0.00    0.72    2.40    0.00    0.00    0.00
 1988 213     1     0     0     0.0  100.2   16645   78.6   21.6  16.6  15.8  15.4   8.7   4.7   0.0   0.1   0.1   0.0   0.0   0.1   1.0   1.4   1.4   1.4  1.51  1.42  1.40  0.00  0.00    1.45    3.79    0.00    0.00    0.00
 1988 214     2     0     0     0.0  100.9   16644   79.9   21.0   9.5  19.7  15.5   8.8   4.8   0.1   0.2   0.2   0.0   0.0   0.1   0.9   1.4   1.3   1.3  1.51  1.39  1.36  0.00  0.00    2.16    5.13    0.00    0.00    0.00
 1988 215     3     0     0     0.0  101.6   16643   81.0   20.5   2.4  10.4  15.0  12.8   8.4   0.4   0.2   0.2   0.0   0.0   0.2   0.8   1.4   1.2   1.3  1.51  1.35  1.31  0.00  0.00    2.80    6.22    0.00    0.00    0.00
 1988 216     4     1     1     0.0  103.1   16643   81.8   21.3   2.6   8.6  14.0  12.3   9.0   1.3   0.4   0.2   0.0   0.0   1.0   0.9   1.4   1.3   1.3  1.53  1.35  1.30  0.00  0.00    3.38    6.49    0.00    0.00    0.04
 1988 217     5     3     2     0.0  105.5   16642   82.9   22.6   4.3   8.4  13.8  12.2   9.1   1.5   0.4   0.3   0.0   0.0   2.7   0.9   1.5   1.3   1.3  1.55  1.36  1.30  0.00  0.00    3.89    6.68    0.00    0.00    0.07
 1988 218     6     3     2     0.2  105.8   16642   83.1   22.7   4.6   8.2  13.5  11.8   9.1   1.7   0.5   0.3   0.0   0.0   2.4   1.0   1.6   1.3   1.3  1.56  1.36  1.29  0.00  0.00    4.32    6.98    0.00    0.00    0.11
 1988 219     7     3     2     0.3  106.0   16641   83.8   22.2   5.7   8.2  13.4  11.6   9.0   1.9   0.6   0.3   0.0   0.0   1.1   1.0   1.6   1.3   1.3  1.58  1.36  1.28  0.00  0.00    4.73    7.79    0.00    0.00    0.20
 1988 220     8     3     2     0.3  106.2   16641   84.3   21.9   6.5   8.2  13.3  11.5   9.0   2.0   0.7   0.4   0.0   0.0   0.5   0.9   1.7   1.3   1.4  1.59  1.36  1.27  0.00  0.00    5.17    8.44    0.12    0.00    0.28
 1988 221     9     3     2     0.3  106.6   16640   84.7   21.8   7.0   8.3  13.3  11.4   8.9   2.0   0.7   0.4   0.0   0.0   0.2   0.9   1.7   1.3   1.4  1.60  1.36  1.26  0.00  0.00    5.64    8.94    0.16    0.00    0.32
 1988 222    10     3     2     0.4  107.0   16640   85.3   21.7   7.3   8.3  13.4  11.4   8.9   2.0   0.7   0.4   0.0   0.0   0.0   0.8   1.7   1.3   1.4  1.62  1.36  1.25  0.00  0.00    6.13    9.53    0.19    0.00    0.38
 1988 223    11     3     2     0.4  107.4   16639   85.8   21.6   7.5   8.4  13.5  11.4   9.0   2.0   0.7   0.4   0.0   0.0   0.0   0.8   1.6   1.4   1.4  1.63  1.36  1.24  0.00  0.00    6.61   10.05    0.20    0.00    0.40
 1988 224    12     3     2     0.4  107.9   16639   86.3   21.6   7.7   8.4  13.6  11.5   9.0   2.0   0.7   0.4   0.0   0.0   0.1   0.7   1.6   1.4   1.4  1.65  1.35  1.23  0.00  0.00    7.06   10.54    0.21    0.00    0.41
 1988 225    13     3     2     0.4  108.3   16639   86.8   21.4   7.9   8.5  13.7  11.5   9.0   2.0   0.8   0.4   0.0   0.0   0.1   0.7   1.6   1.3   1.4  1.66  1.35  1.22  0.00  0.00    7.51   11.10    0.22    0.00    0.43
 1988 226    14     3     2     0.4  108.7   16638   87.4   21.3   8.1   8.5  13.7  11.6   9.0   2.0   0.8   0.5   0.0   0.0   0.1   0.7   1.5   1.3   1.4  1.67  1.35  1.21  0.00  0.00    7.96   11.66    0.23    0.00    0.44
 1988 227    15     3     2     0.4  109.1   16638   87.9   21.2   8.3   8.6  13.8  11.7   9.0   2.0   0.8   0.5   0.0   0.0   0.1   0.6   1.5   1.2   1.4  1.69  1.35  1.20  0.00  0.00    8.40   12.21    0.24    0.00    0.44
 1988 228    16     3     2     0.4  109.6   16637   88.5   21.1   8.5   8.7  13.9  11.7   9.0   2.0   0.8   0.5   0.0   0.0   0.1   0.6   1.5   1.2   1.4  1.70  1.35  1.19  0.00  0.00    8.90   12.80    0.25    0.00    0.45
 1988 229    17     3     2     0.4  110.2   16637   89.1   21.0   8.8   8.7  14.0  11.8   9.1   2.1   0.8   0.5   0.0   0.0   0.1   0.6   1.4   1.2   1.4  1.72  1.34  1.18  0.00  0.00    9.45   13.43    0.25    0.00    0.45
 1988 230    18     3     2     0.4  110.7   16636   89.8   20.9   9.0   8.8  14.1  11.9   9.1   2.1   0.8   0.5   0.0   0.0   0.1   0.6   1.4   1.1   1.4  1.73  1.34  1.17  0.00  0.00   10.00   14.07    0.26    0.00    0.45
 1988 231    19     3     2     0.4  111.0   16635   90.2   20.8   9.1   8.8  14.2  11.9   9.1   2.1   0.8   0.5   0.0   0.0   0.1   0.6   1.4   1.1   1.4  1.74  1.34  1.16  0.00  0.00   10.55   14.69    0.27    0.00    0.45
 1988 232    20     3     2     0.4  111.6   16635   90.8   20.8   9.3   8.9  14.3  12.0   9.1   2.1   0.9   0.6   0.0   0.0   0.1   0.6   1.4   1.1   1.4  1.76  1.34  1.15  0.00  0.00   11.12   15.34    0.27    0.00    0.46
 1988 233    21     3     2     0.4  112.2   16634   91.5   20.7   6.1   9.5  15.0  12.2   9.2   2.1   0.9   0.6   0.0   0.0   0.1   0.5   1.4   1.0   1.4  1.77  1.33  1.14  0.00  0.00   11.72   15.99    0.28    0.00    0.46
 1988 234    22     3     2     0.4  112.8   16634   91.8   20.9   6.2   9.4  14.9  12.3   9.2   2.1   0.9   0.6   0.0   0.0   0.1   0.6   1.4   1.0   1.5  1.79  1.33  1.13  0.00  0.00   12.31   16.37    0.28    0.00    0.46
 1988 235    23     3     2     0.4  113.3   16633   92.1   21.2   6.4   9.3  14.9  12.3   9.3   2.2   0.9   0.6   0.0   0.0   0.1   0.7   1.5   1.0   1.5  1.80  1.33  1.12  0.00  0.00   12.92   16.69    0.29    0.00    0.49
 1988 236    24     3     2     0.4  113.9   16633   92.7   21.2   6.7   9.3  15.0  12.3   9.3   2.2   0.9   0.6   0.0   0.0   0.1   0.7   1.5   1.0   1.5  1.82  1.33  1.11  0.00  0.00   13.53   17.31    0.29    0.00    0.51
 1988 237    25    25     3     0.4  136.5   16632  104.5   32.0  26.9   9.3  15.1  12.4   9.3   2.2   0.9   0.6   0.0   0.0  19.8   0.6   1.4   1.0   1.5  1.83  1.33  1.10  0.00  0.00   14.18   18.06    0.30    0.00    0.57
 1988 238    26    25     3     0.4  137.0   16631  116.0   21.0  46.5   9.4  15.2  12.5   9.4   2.2   1.0   0.6   0.0   0.0   0.4   0.6   1.4   1.0   1.4  1.85  1.32  1.09  0.00  0.00   14.83   29.60    0.30    0.00    0.61
 1988 239    27    25     3     0.4  137.6   16631  116.9   20.6  47.1   9.4  15.3  12.5   9.5   2.2   1.0   0.7   0.0   0.0   0.1   0.6   1.4   0.9   1.4  1.86  1.32  1.08  0.00  0.00   15.46   30.59    0.30    0.00    0.65
 1988 240    28    25     3     0.4  138.1   16630  117.6   20.5  47.3   9.5  15.4  12.6   9.6   2.2   1.0   0.7   0.0   0.0   0.1   0.6   1.4   0.9   1.3  1.88  1.32  1.07  0.00  0.00   16.05   31.31    0.31    0.00    0.69
 1988 241    29    25     3     0.4  138.6   16629  118.3   20.3  47.5   9.6  15.5  12.6   9.6   2.2   1.0   0.7   0.0   0.0   0.1   0.5   1.3   0.9   1.3  1.89  1.32  1.06  0.00  0.00   16.60   31.97    0.31    0.00    0.70
 1988 242    30    25     3     0.4  139.1   16629  118.8   20.2  47.8   9.6  15.6  12.7   9.7   2.2   1.0   0.7   0.0   0.0   0.1   0.5   1.3   0.9   1.2  1.90  1.32  1.05  0.00  0.00   17.08   32.54    0.32    0.00    0.72
 1988 243    31    25     3     0.4  139.5   16628  119.4   20.1  48.0   9.6  15.6  12.7   9.8   2.2   1.0   0.7   0.0   0.0   0.1   0.5   1.3   0.9   1.2  1.92  1.31  1.04  0.00  0.00   17.54   33.10    0.32    0.00    0.74
 1988 244    32    25     3     0.4  140.0   16628  119.9   20.0  48.2   9.7  15.7  12.8   9.8   2.2   1.0   0.7   0.0   0.0   0.1   0.5   1.3   0.8   1.2  1.93  1.31  1.03  0.00  0.00   18.01   33.65    0.32    0.00    0.75
 1988 245    33    25     3     0.4  140.3   16628  120.4   19.9  48.3   9.7  15.8  12.8   9.9   2.2   1.0   0.7   0.0   0.0   0.1   0.5   1.3   0.8   1.1  1.94  1.31  1.03  0.00  0.00   18.53   34.23    0.33    0.00    0.77
 1988 246    34    25     3     0.4  140.6   16627  120.8   19.9  48.3   9.7  15.8  12.9  10.0   2.2   1.1   0.7   0.0   0.0   0.1   0.5   1.3   0.8   1.1  1.96  1.31  1.02  0.00  0.00   19.05   34.82    0.33    0.00    0.79
 1988 247    35    25     3     0.4  141.1   16626  121.3   19.8  48.4   9.8  15.9  12.9  10.0   2.2   1.1   0.8   0.0   0.0   0.1   0.5   1.3   0.8   1.1  1.97  1.31  1.01  0.00  0.00   19.56   35.39    0.34    0.00    0.79
 1988 248    36    25     3     0.4  141.5   16626  121.8   19.7  48.6   9.9  16.0  12.9  10.1   2.2   1.1   0.8   0.0   0.0   0.1   0.5   1.2   0.8   1.1  1.98  1.30  1.00  0.00  0.00   20.04   35.93    0.34    0.00    0.79
 1988 249    37    25     3     0.4  142.0   16626  122.3   19.7  48.8   9.9  16.0  13.0  10.1   2.2   1.1   0.8   0.0   0.0   0.1   0.5   1.2   0.8   1.0  1.99  1.30  0.99  0.00  0.00   20.51   36.46    0.34    0.00    0.79
 1988 250    38    25     3     0.4  142.4   16625  122.8   19.6  48.9  10.0  16.1  13.0  10.2   2.2   1.1   0.8   0.0   0.0   0.1   0.5   1.2   0.8   1.0  2.01  1.30  0.99  0.00  0.00   20.99   37.00    0.35    0.00    0.79
 1988 251    39    25     3     0.4  142.6   16625  123.1   19.5  38.0  15.3  16.2  13.0  10.2   2.3   1.1   0.8   0.0   0.0   0.1   0.5   1.2   0.7   1.0  2.02  1.30  0.98  0.00  0.00   21.49   37.55    0.35    0.00    0.80
 1988 252    40    25     3     0.4  142.9   16624  123.3   19.6  37.8  15.0  16.4  13.1  10.3   2.3   1.1   0.8   0.0   0.0   0.2   0.6   1.2   0.7   1.0  2.03  1.30  0.97  0.00  0.00   22.02   38.01    0.36    0.00    0.80
 1988 253    41    25     3     0.4  143.2   16623  123.7   19.5  29.8  17.7  17.3  13.1  10.3   2.3   1.1   0.8   0.0   0.0   0.1   0.6   1.2   0.7   0.9  2.05  1.30  0.96  0.00  0.00   22.61   38.68    0.36    0.00    0.80
 1988 254    42    25     3     0.4  143.2   16623  123.6   19.6  23.1  18.7  18.2  13.6  10.4   2.3   1.2   0.8   0.0   0.0   0.2   0.6   1.2   0.7   0.9  2.06  1.29  0.95  0.00  0.00   23.19   39.16    0.36    0.00    0.81
 1988 255    43    25     3     0.5  143.4   16622  123.6   19.9  22.9  18.3  17.9  13.5  10.6   2.4   1.2   0.9   0.0   0.0   0.3   0.7   1.3   0.7   0.9  2.07  1.29  0.95  0.00  0.00   23.72   39.42    0.37    0.00    0.81
 1988 256    44    25     3     0.5  143.7   16622  123.6   20.1  23.0  18.0  17.7  13.5  10.7   2.5   1.2   0.9   0.0   0.0   0.2   0.8   1.3   0.8   0.9  2.08  1.29  0.94  0.00  0.00   24.25   39.72    0.37    0.00    0.81
 1988 257    45    25     3     0.5  143.8   16621  123.6   20.2  23.4  17.8  17.5  13.5  10.7   2.5   1.3   0.9   0.0   0.0   0.1   0.7   1.4   0.8   0.9  2.10  1.29  0.93  0.00  0.00   24.79   40.11    0.38    0.00    0.82
 1988 258    46    25     3     0.5  143.8   16621  123.5   20.2  23.8  17.4  17.5  13.5  10.7   2.5   1.3   0.9   0.0   0.0   0.1   0.7   1.4   0.8   0.9  2.11  1.29  0.93  0.00  0.00   25.32   40.63    0.38    0.00    0.82
 1988 259    47    25     3     0.5  143.6   16620  123.4   20.2  24.1  17.2  17.4  13.6  10.7   2.6   1.3   0.9   0.0   0.0   0.1   0.7   1.3   0.8   1.0  2.12  1.29  0.92  0.00  0.00   25.85   41.12    0.39    0.00    0.83
 1988 260    48    25     3     0.5  143.7   16620  123.4   20.3  24.5  17.0  17.3  13.6  10.8   2.6   1.3   0.9   0.0   0.0   0.1   0.6   1.3   0.8   1.0  2.13  1.28  0.91  0.00  0.00   26.37   41.61    0.40    0.00    0.83
 1988 261    49    25     3     0.5  144.2   16619  123.9   20.3  25.0  16.9  17.4  13.6  10.8   2.6   1.3   0.9   0.0   0.0   0.1   0.6   1.3   0.9   1.0  2.15  1.28  0.90  0.00  0.00   26.87   42.06    0.40    0.00    0.83
 1988 262    50    25     3     0.5  144.6   16619  124.3   20.3  25.4  16.9  17.4  13.6  10.8   2.6   1.3   1.0   0.0   0.0   0.1   0.6   1.3   0.8   1.0  2.16  1.28  0.90  0.00  0.00   27.32   42.54    0.41    0.00    0.84
 1988 263    51    25     3     0.5  145.1   16618  124.9   20.2  25.9  16.9  17.5  13.7  10.8   2.6   1.3   1.0   0.0   0.0   0.1   0.6   1.3   0.8   1.0  2.17  1.28  0.89  0.00  0.00   27.76   43.06    0.41    0.00    0.84
 1988 264    52    25     3     0.5  145.1   16618  125.0   20.1  26.1  16.8  17.4  13.7  10.9   2.6   1.3   1.0   0.0   0.0   0.1   0.6   1.3   0.8   0.9  2.18  1.28  0.88  0.00  0.00   28.23   43.59    0.42    0.00    0.84
 1988 265    53    25     3     0.5  145.0   16617  125.0   20.0  23.2  18.1  17.3  13.7  10.9   2.6   1.4   1.0   0.0   0.0   0.1   0.5   1.2   0.8   0.9  2.19  1.28  0.88  0.00  0.00   28.73   44.16    0.42    0.00    0.84
 1988 266    54    25     3     0.9  144.6   16617  124.6   20.0   7.3  13.9  17.0  14.2  12.5   4.4   2.1   1.3   0.0   0.0   0.2   0.5   1.2   0.8   0.9  2.21  1.28  0.87  0.00  0.00   29.27   44.71    0.43    0.00    0.85
 1988 267    55    25     3     1.7  143.8   16616  123.4   20.4   4.4  11.7  15.9  13.7  12.6   5.3   2.6   1.5   0.0   0.0   0.1   0.6   1.3   0.8   0.9  2.22  1.28  0.87  0.00  0.00   29.82   44.90    0.51    0.00    0.85
 1988 268    56    25     3     2.4  142.9   16616  122.2   20.7   4.4  11.4  15.5  13.3  12.3   5.4   2.8   1.6   0.0   0.0   0.1   0.7   1.4   0.8   1.0  2.24  1.28  0.87  0.00  0.00   30.40   45.09    0.61    0.00    0.85
 1988 269    57    25     3     2.9  141.8   16615  120.8   21.0   4.4  11.0  14.9  13.0  12.2   5.4   2.9   1.7   0.0   0.0   0.1   0.8   1.4   0.9   1.0  2.25  1.29  0.87  0.00  0.00   30.98   45.31    0.67    0.00    0.86
 1988 270    58    25     3     3.0  141.0   16615  119.9   21.2   2.3   8.2  13.7  12.8  12.7   6.3   3.4   1.8   0.0   0.0   0.1   0.7   1.5   0.9   1.0  2.27  1.29  0.86  0.00  0.00   31.52   45.68    0.71    0.00    0.86
 1988 271    59    25     3     3.3  140.3   16614  118.8   21.5   1.9   7.5  13.1  12.6  12.6   6.5   3.6   2.0   0.0   0.0   0.2   0.8   1.5   0.9   1.0  2.28  1.29  0.86  0.00  0.00   32.02   45.81    1.19    0.00    0.86
 1988 272    60    25     3     4.3  138.9   16614  117.1   21.8   2.0   7.3  12.6  12.1  12.2   6.5   3.8   2.2   0.0   0.0   0.1   0.8   1.6   0.9   1.0  2.29  1.29  0.86  0.00  0.00   32.51   45.99    1.69    0.00    0.87
 1988 273    61    25     3     4.9  137.3   16613  115.3   22.0   2.1   7.0  12.1  11.7  11.9   6.5   3.9   2.3   0.0   0.0   0.1   0.9   1.6   0.9   1.0  2.31  1.30  0.85  0.00  0.00   32.97   46.20    1.96    0.00    0.87
 1988 274    62    25     3     5.2  136.3   16613  114.3   22.0   2.3   6.8  11.8  11.5  11.8   6.5   3.9   2.3   0.0   0.0   0.1   0.8   1.6   1.0   1.1  2.32  1.30  0.85  0.00  0.00   33.46   46.56    2.09    0.00    0.87
 1988 275    63    25     3     5.4  134.9   16612  113.0   21.9   2.5   6.6  11.4  11.3  11.8   6.5   3.9   2.3   0.0   0.0   0.1   0.7   1.5   1.0   1.1  2.33  1.30  0.85  0.00  0.00   33.98   47.11    2.16    0.00    0.88
 1988 276    64    25     3     5.5  134.9   16611  113.1   21.8   2.7   6.6  11.3  11.3  11.7   6.5   4.0   2.4   0.0   0.0   0.1   0.7   1.5   1.0   1.1  2.34  1.29  0.84  0.00  0.00   34.55   47.70    2.19    0.00    0.88
 1988 277    65    25     3     5.5  134.0   16611  112.3   21.6   1.8   6.2  11.3  11.3  11.8   6.5   4.0   2.4   0.0   0.0   0.1   0.6   1.4   0.9   1.1  2.36  1.29  0.83  0.00  0.00   35.17   48.41    2.21    0.00    0.88
 1988 278    66    25     3     5.6  130.6   16610  108.8   21.8   1.7   5.7  10.1  10.6  11.7   6.6   4.0   2.4   0.0   0.0   0.1   0.7   1.4   0.9   1.1  2.37  1.29  0.83  0.00  0.00   35.78   48.70    2.23    0.00    0.88
 1988 279    67    25     3     5.6  129.5   16610  107.7   21.8   1.8   5.4   9.7  10.4  11.7   6.6   4.1   2.4   0.0   0.0   0.1   0.8   1.3   1.0   1.1  2.38  1.29  0.82  0.00  0.00   36.39   49.17    2.25    0.00    0.89
 1988 280    68    25     3     5.6  128.3   16609  106.7   21.6   1.9   5.3   9.3  10.3  11.7   6.6   4.1   2.4   0.0   0.0   0.1   0.7   1.3   0.9   1.1  2.39  1.29  0.82  0.00  0.00   36.99   49.85    2.26    0.00    0.89
 1988 281    69    25     3     5.6  126.5   16608  105.1   21.4   2.0   5.1   8.8  10.1  11.6   6.6   4.1   2.5   0.0   0.0   0.1   0.7   1.2   0.9   1.1  2.41  1.29  0.81  0.00  0.00   37.56   50.48    2.28    0.00    0.89
 1988 282    70    25     3     5.6  124.5   16608  103.2   21.2   2.0   4.8   8.3   9.9  11.4   6.6   4.1   2.5   0.0   0.0   0.1   0.6   1.2   0.9   1.1  2.42  1.28  0.80  0.00  0.00   38.14   51.09    2.29    0.00    0.90
 1988 283    71    25     3     5.6  122.5   16607  101.4   21.1   2.0   4.6   7.8   9.6  11.2   6.6   4.1   2.5   0.0   0.0   0.1   0.6   1.1   0.8   1.1  2.43  1.28  0.80  0.00  0.00   38.76   51.72    2.30    0.00    0.90
 1988 284    72    25     3     5.6  121.8   16607  100.9   20.9   2.1   4.6   7.6   9.5  11.1   6.6   4.1   2.5   0.0   0.0   0.1   0.6   1.1   0.8   1.1  2.44  1.28  0.79  0.00  0.00   39.37   52.42    2.31    0.00    0.90
 1988 285    73    25     3     5.6  119.1   16606   98.4   20.7   2.1   4.2   7.0   9.2  10.9   6.6   4.1   2.5   0.0   0.0   0.1   0.5   1.0   0.8   1.0  2.45  1.28  0.79  0.00  0.00   39.99   53.11    2.32    0.00    0.90
 1988 286    74    25     3     5.6  116.7   16605   96.2   20.5   2.0   4.0   6.4   9.0  10.6   6.6   4.1   2.5   0.0   0.0   0.1   0.5   1.0   0.8   1.0  2.46  1.28  0.78  0.00  0.00   40.60   53.78    2.33    0.00    0.91
 1988 287    75    25     3     5.6  113.3   16605   93.0   20.3   1.9   3.6   5.7   8.6  10.2   6.6   4.1   2.5   0.0   0.0   0.1   0.5   0.9   0.7   1.0  2.48  1.28  0.78  0.00  0.00   41.21   54.43    2.34    0.00    0.91
 1988 288    76    25     3     5.6  111.5   16604   91.4   20.2   1.9   3.4   5.3   8.3  10.0   6.6   4.2   2.5   0.0   0.0   0.1   0.5   0.9   0.7   0.9  2.49  1.28  0.77  0.00  0.00   41.78   55.03    2.35    0.00    0.91
 1988 289    77    25     3     5.6  109.1   16604   89.1   20.0   1.8   3.1   4.8   8.0   9.6   6.6   4.2   2.5   0.0   0.0   0.1   0.4   0.9   0.7   0.9  2.50  1.27  0.77  0.00  0.00   42.34   55.63    2.36    0.00    0.91
 1988 290    78    25     3     5.6  106.8   16603   86.9   19.9   1.7   2.9   4.4   7.7   9.3   6.6   4.2   2.5   0.0   0.0   0.1   0.4   0.8   0.7   0.8  2.51  1.27  0.76  0.00  0.00   42.88   56.19    2.37    0.00    0.92
 1988 291    79    25     3     5.6  104.5   16603   84.8   19.7   0.7   2.6   4.3   7.4   9.0   6.6   4.2   2.5   0.0   0.0   0.1   0.4   0.8   0.7   0.8  2.52  1.27  0.76  0.00  0.00   43.39   56.71    2.38    0.00    0.92
 1988 292    80    25     3     5.6  103.2   16602   83.4   19.8   0.8   2.4   4.0   7.2   8.8   6.6   4.2   2.6   0.0   0.0   0.1   0.5   0.8   0.6   0.8  2.53  1.27  0.75  0.00  0.00   43.95   57.12    2.39    0.00    0.92
 1988 293    81    25     3     5.6   99.8   16602   80.1   19.7   0.7   2.1   3.3   6.7   8.3   6.7   4.2   2.6   0.0   0.0   0.1   0.5   0.8   0.6   0.8  2.55  1.27  0.75  0.00  0.00   44.54   57.67    2.39    0.00    0.92
 1988 294    82    25     3     5.6   98.5   16601   78.8   19.7   0.8   2.0   3.1   6.5   8.0   6.7   4.2   2.6   0.0   0.0   0.1   0.5   0.8   0.6   0.7  2.56  1.27  0.74  0.00  0.00   45.13   58.21    2.40    0.00    0.93
 1988 295    83    25     3     5.6   93.8   16600   74.3   19.5   0.7   1.5   2.3   5.9   7.3   6.7   4.2   2.6   0.0   0.0   0.1   0.5   0.7   0.6   0.7  2.57  1.27  0.74  0.00  0.00   45.74   58.77    2.41    0.00    0.93
 1988 296    84    25     3     5.6   90.7   16600   71.4   19.3   0.6   1.3   1.9   5.4   6.8   6.6   4.2   2.6   0.0   0.0   0.1   0.5   0.7   0.6   0.7  2.56  1.26  0.73  0.00  0.00   46.38   59.35    2.41    0.00    0.93
 1988 297    85    25     3     5.6   88.1   16599   69.1   19.0   0.7   1.2   1.6   5.1   6.4   6.5   4.3   2.6   0.0   0.0   0.1   0.5   0.7   0.6   0.7  2.50  1.26  0.73  0.00  0.00   47.03   60.04    2.41    0.00    0.93
 1988 298    86    25     3     5.6   82.5   16599   64.1   18.4   0.5   0.9   1.1   4.5   5.7   6.2   4.3   2.6   0.0   0.0   0.1   0.5   0.7   0.6   0.6  2.40  1.26  0.72  0.00  0.00   47.65   60.70    2.42    0.00    0.94
 1988 299    87    25     3     5.6   78.5   16598   60.7   17.8   0.5   0.8   0.9   4.1   5.2   5.9   4.3   2.6   0.0   0.0   0.1   0.5   0.7   0.5   0.6  2.28  1.26  0.72  0.00  0.00   48.27   61.37    2.42    0.00    0.94
 1988 300    88    25     3     5.6   77.3   16597   59.7   17.6   0.6   0.8   0.9   4.0   5.0   5.8   4.3   2.6   0.0   0.0   0.1   0.4   0.7   0.5   0.6  2.23  1.26  0.71  0.00  0.00   48.86   61.98    2.42    0.00    0.94
 1988 301    89    25     3     5.6   72.7   16597   55.8   16.9   0.5   0.7   0.7   3.5   4.5   5.3   4.3   2.6   0.0   0.0   0.1   0.4   0.6   0.5   0.6  2.09  1.26  0.71  0.00  0.00   49.41   62.57    2.43    0.00    0.94
 1988 302    90    25     3     5.6   69.4   16596   53.1   16.3   0.2   0.6   0.7   3.3   4.2   5.0   4.3   2.6   0.0   0.0   0.1   0.4   0.6   0.5   0.6  1.98  1.26  0.71  0.00  0.00   49.92   63.12    2.43    0.00    0.95
 1988 303    91    25     3     5.6   64.8   16596   49.0   15.8   0.3   0.5   0.5   2.8   3.7   4.5   4.3   2.6   0.0   0.0   0.1   0.5   0.6   0.5   0.6  1.83  1.25  0.70  0.00  0.00   50.54   63.57    2.44    0.00    0.95
 1988 304    92    25     3     5.6   59.6   16595   44.6   15.0   0.4   0.4   0.3   2.4   3.1   4.0   4.3   2.7   0.0   0.0   0.1   0.5   0.6   0.5   0.5  1.67  1.25  0.70  0.00  0.00   51.19   64.18    2.44    0.00    0.95
 1988 305    93    25     3     5.6   57.6   16594   42.9   14.7   0.2   0.4   0.4   2.2   2.9   3.7   4.3   2.7   0.0   0.0   0.1   0.5   0.6   0.5   0.5  1.59  1.25  0.69  0.00  0.00   51.85   64.79    2.44    0.00    0.95
 1988 306    94    25     3     5.6   52.2   16594   37.9   14.2   0.3   0.3   0.3   1.7   2.3   3.1   4.4   2.7   0.0   0.0   0.2   0.6   0.7   0.5   0.5  1.40  1.25  0.69  0.00  0.00   52.56   65.12    2.45    0.00    0.96
 1988 307    95    25     3     5.6   48.0   16593   34.5   13.6   0.5   0.3   0.3   1.3   1.8   2.6   4.4   2.7   0.0   0.0   0.1   0.6   0.7   0.5   0.5  1.25  1.25  0.68  0.00  0.00   53.25   65.59    2.45    0.00    0.96
 1988 308    96    25     3     5.6   44.3   16592   31.6   12.8   0.4   0.4   0.3   1.0   1.4   2.1   4.4   2.7   0.0   0.0   0.1   0.5   0.6   0.5   0.5  1.12  1.25  0.68  0.00  0.00   53.92   66.18    2.45    0.00    0.96
 1988 309    97    25     3     5.6   41.3   16592   29.1   12.3   0.4   0.4   0.3   0.8   1.2   1.8   4.4   2.7   0.0   0.0   0.1   0.5   0.6   0.5   0.5  1.02  1.25  0.68  0.00  0.00   54.54   66.70    2.45    0.00    0.97
 1988 310    98    25     3     5.6   39.0   16591   27.1   11.9   0.4   0.4   0.3   0.6   0.9   1.5   4.4   2.7   0.0   0.0   0.1   0.5   0.6   0.5   0.5  0.93  1.24  0.67  0.00  0.00   55.19   67.22    2.45    0.00    0.97
 1988 311    99    25     3     5.6   37.3   16591   25.6   11.6   0.4   0.4   0.3   0.5   0.7   1.2   4.4   2.7   0.0   0.0   0.1   0.5   0.6   0.5   0.5  0.87  1.24  0.67  0.00  0.00   55.88   67.79    2.46    0.00    0.97
 1988 312   100    25     3     5.6   35.8   16590   24.5   11.3   0.4   0.4   0.3   0.4   0.6   1.0   4.5   2.7   0.0   0.0   0.1   0.5   0.6   0.5   0.5  0.81  1.21  0.66  0.00  0.00   56.61   68.47    2.46    0.00    0.98
 1988 313   101    25     3     5.6   34.7   16589   23.7   11.0   0.4   0.4   0.3   0.4   0.5   0.8   4.5   2.7   0.0   0.0   0.1   0.5   0.6   0.5   0.5  0.76  1.19  0.66  0.00  0.00   57.34   69.20    2.46    0.00    0.98
 1988 314   102    25     3     5.6   33.7   16589   23.0   10.7   0.4   0.4   0.3   0.3   0.4   0.7   4.5   2.7   0.0   0.0   0.1   0.4   0.6   0.5   0.5  0.73  1.16  0.66  0.00  0.00   58.06   69.90    2.46    0.00    0.98
 1988 315   103    25     3     5.6   32.9   16588   22.5   10.4   0.4   0.4   0.3   0.3   0.4   0.6   4.6   2.7   0.0   0.0   0.1   0.4   0.6   0.5   0.5  0.70  1.13  0.65  0.00  0.00   58.74   70.60    2.46    0.00    0.98
 1988 316   104    25     3     5.6   32.2   16587   22.1   10.2   0.1   0.3   0.4   0.3   0.3   0.5   4.6   2.8   0.0   0.0   0.1   0.4   0.6   0.5   0.5  0.67  1.11  0.65  0.00  0.00   59.37   71.24    2.46    0.00    0.99
 1988 317   105    25     3     5.6   31.8   16587   21.4   10.4   0.1   0.2   0.2   0.3   0.3   0.4   4.6   2.8   0.0   0.0   0.2   0.5   0.7   0.5   0.5  0.65  1.08  0.65  0.00  0.00   60.10   71.57    2.46    0.00    0.99
 1988 318   106    25     3     5.6   31.8   16586   21.2   10.6   0.2   0.2   0.3   0.3   0.3   0.3   4.7   2.8   0.0   0.0   0.3   0.6   0.7   0.5   0.5  0.63  1.06  0.64  0.00  0.00   60.83   71.85    2.46    0.00    0.99
 1988 319   107    25     3     5.6   31.8   16585   21.6   10.2   0.6   0.4   0.3   0.3   0.3   0.3   4.7   2.8   0.0   0.0   0.0   0.5   0.6   0.6   0.5  0.62  1.04  0.64  0.00  0.00   61.58   72.66    2.46    0.00    0.99
 1988 320   108    25     3     5.6   31.5   16585   21.4   10.0   0.3   0.4   0.3   0.3   0.3   0.3   4.7   2.8   0.0   0.0   0.1   0.5   0.6   0.6   0.5  0.61  1.02  0.63  0.00  0.00   62.32   73.26    2.47    0.00    0.99
 1988 321   109    25     3     5.6   29.9   16584   20.2    9.7   0.4   0.4   0.3   0.3   0.3   0.3   4.2   2.8   0.0   0.0   0.1   0.5   0.6   0.5   0.5  0.60  0.93  0.63  0.00  0.00   63.07   73.94    2.47    0.00    1.00
 1988 322   110    25     3     5.6   28.5   16583   19.0    9.5   0.4   0.4   0.3   0.3   0.3   0.3   3.7   2.8   0.0   0.0   0.1   0.5   0.6   0.5   0.5  0.59  0.86  0.63  0.00  0.00   63.86   74.62    2.47    0.00    1.00
 1988 323   111    25     3     5.6   27.3   16582   18.0    9.3   0.4   0.4   0.3   0.3   0.3   0.3   3.3   2.8   0.0   0.0   0.1   0.5   0.6   0.5   0.5  0.58  0.80  0.62  0.00  0.00   64.69   75.36    2.47    0.00    1.00
 1988 324   112    25     3     5.6   26.1   16582   17.0    9.1   0.3   0.5   0.4   0.3   0.3   0.3   2.9   2.8   0.0   0.0   0.1   0.5   0.6   0.5   0.5  0.58  0.75  0.62  0.00  0.00   65.50   76.05    2.47    0.00    1.00
 1988 325   113    25     3     5.6   25.2   16581   16.0    9.2   0.3   0.3   0.3   0.3   0.3   0.3   2.5   2.8   0.0   0.0   0.3   0.6   0.6   0.5   0.5  0.57  0.70  0.62  0.00  0.00   66.32   76.52    2.47    0.00    1.00
 1988 326   114    25     3     5.6   24.5   16580   15.7    8.8   0.6   0.5   0.4   0.3   0.3   0.3   2.2   2.8   0.0   0.0   0.0   0.5   0.6   0.5   0.5  0.57  0.66  0.61  0.00  0.00   67.14   77.44    2.47    0.00    1.01
 1988 327   115    25     3     5.6   23.7   16579   14.6    9.1   0.2   0.3   0.3   0.3   0.3   0.3   2.0   2.8   0.0   0.0   0.2   0.6   0.7   0.5   0.5  0.56  0.63  0.61  0.00  0.00   67.91   77.74    2.47    0.00    1.01
 1988 328   116    25     3     5.6   23.2   16579   13.9    9.2   0.3   0.3   0.3   0.3   0.3   0.3   1.7   2.9   0.0   0.0   0.3   0.7   0.7   0.5   0.5  0.56  0.61  0.59  0.00  0.00   68.62   78.02    2.47    0.00    1.01
 1988 329   117    25     3     5.6   22.7   16578   13.8    8.9   0.6   0.3   0.3   0.3   0.3   0.3   1.5   2.9   0.0   0.0   0.1   0.7   0.6   0.5   0.5  0.56  0.58  0.58  0.00  0.00   69.33   78.65    2.47    0.00    1.01
 1988 330   118    25     3     5.6   22.0   16577   13.4    8.6   0.3   0.4   0.3   0.3   0.3   0.3   1.3   2.9   0.0   0.0   0.1   0.5   0.6   0.5   0.5  0.56  0.57  0.56  0.00  0.00   70.02   79.28    2.47    0.00    1.01
 1988 331   119    25     3     5.6   21.5   16577   13.1    8.4   0.4   0.4   0.3   0.3   0.3   0.3   1.2   2.9   0.0   0.0   0.1   0.5   0.6   0.5   0.5  0.55  0.55  0.55  0.00  0.00   70.70   79.88    2.47    0.00    1.01
 1988 332   120    25     3     5.6   21.1   16576   12.8    8.3   0.4   0.4   0.3   0.3   0.3   0.3   1.1   2.9   0.0   0.0   0.1   0.5   0.6   0.5   0.5  0.55  0.53  0.53  0.00  0.00   71.41   80.50    2.47    0.00    1.02
 1988 333   121    25     3     5.6   20.8   16576   12.5    8.3   0.4   0.4   0.3   0.3   0.3   0.3   0.9   3.0   0.0   0.0   0.1   0.5   0.6   0.5   0.5  0.55  0.52  0.52  0.00  0.00   72.11   81.11    2.47    0.00    1.02
 1988 334   122    25     3     5.6   20.5   16575   12.3    8.2   0.4   0.4   0.3   0.3   0.3   0.3   0.8   3.0   0.0   0.0   0.1   0.5   0.6   0.5   0.5  0.55  0.51  0.51  0.00  0.00   72.79   81.70    2.47    0.00    1.02
 1988 335   123    25     3     5.6   20.2   16574   12.1    8.1   0.4   0.4   0.3   0.3   0.3   0.3   0.7   3.0   0.0   0.0   0.1   0.5   0.6   0.5   0.5  0.55  0.50  0.50  0.00  0.00   73.45   82.30    2.47    0.00    1.02
 1988 336   124    25     3     5.6   19.9   16574   12.0    8.0   0.4   0.4   0.3   0.3   0.3   0.3   0.7   3.0   0.0   0.0   0.1   0.5   0.6   0.5   0.5  0.55  0.49  0.48  0.00  0.00   74.07   82.89    2.47    0.00    1.03
 1988 337   125    25     3     5.6   19.4   16573   11.5    7.9   0.4   0.4   0.3   0.3   0.3   0.3   0.6   2.9   0.0   0.0   0.1   0.5   0.6   0.5   0.5  0.55  0.49  0.47  0.00  0.00   74.66   83.46    2.47    0.00    1.03
 1988 338   126    25     3     5.6   18.8   16573   11.0    7.7   0.2   0.4   0.4   0.3   0.3   0.3   0.5   2.7   0.0   0.0   0.1   0.4   0.6   0.5   0.5  0.54  0.48  0.46  0.00  0.00   75.24   84.06    2.47    0.00    1.03
 1988 339   127    25     3     5.6   18.3   16572   10.3    7.9   0.2   0.3   0.3   0.3   0.3   0.3   0.5   2.6   0.0   0.0   0.2   0.6   0.6   0.5   0.5  0.54  0.47  0.45  0.00  0.00   75.96   84.47    2.47    0.00    1.03
 1988 340   128    25     3     5.6   18.0   16571   10.3    7.7   0.6   0.5   0.3   0.3   0.3   0.3   0.4   2.4   0.0   0.0   0.0   0.5   0.6   0.5   0.5  0.54  0.46  0.44  0.00  0.00   76.70   85.33    2.47    0.00    1.03
 1988 341   129    25     3     5.6   17.3   16571    9.7    7.6   0.3   0.4   0.3   0.3   0.3   0.3   0.4   2.3   0.0   0.0   0.2   0.5   0.6   0.5   0.5  0.54  0.45  0.43  0.00  0.00   77.46   85.97    2.47    0.00    1.04
 1988 342   130    25     3     5.6   16.9   16570    9.5    7.4   0.6   0.5   0.3   0.3   0.3   0.3   0.4   2.2   0.0   0.0   0.0   0.4   0.6   0.5   0.4  0.54  0.45  0.42  0.00  0.00   78.22   86.85    2.47    0.00    1.04
 1988 343   131    25     3     5.6   16.3   16569    8.9    7.4   0.2   0.4   0.3   0.3   0.3   0.3   0.3   2.0   0.0   0.0   0.2   0.4   0.6   0.5   0.4  0.54  0.44  0.41  0.00  0.00   78.97   87.49    2.47    0.00    1.04
 1988 344   132    25     3     5.6   15.9   16569    8.8    7.2   0.6   0.4   0.3   0.3   0.3   0.3   0.3   1.9   0.0   0.0   0.0   0.4   0.6   0.4   0.4  0.54  0.43  0.40  0.00  0.00   79.66   88.31    2.47    0.00    1.04
 1988 345   133    25     3     5.6   15.4   16568    8.2    7.2   0.2   0.4   0.3   0.3   0.3   0.3   0.3   1.8   0.0   0.0   0.2   0.4   0.5   0.4   0.4  0.54  0.42  0.38  0.00  0.00   80.31   88.86    2.47    0.00    1.04
 1988 346   134    25     3     5.6   15.1   16567    8.1    7.0   0.4   0.4   0.4   0.3   0.3   0.3   0.3   1.7   0.0   0.0   0.0   0.4   0.5   0.4   0.4  0.54  0.42  0.38  0.00  0.00   80.89   89.56    2.47    0.00    1.04
 1988 347   135    25     3     5.6   14.8   16567    7.5    7.2   0.3   0.3   0.3   0.3   0.3   0.3   0.3   1.6   0.0   0.0   0.2   0.5   0.6   0.4   0.4  0.54  0.41  0.37  0.00  0.00   81.61   89.97    2.47    0.00    1.04
 1988 348   136    25     3     5.6   14.7   16566    7.6    7.1   0.3   0.4   0.3   0.3   0.3   0.3   0.3   1.5   0.0   0.0   0.1   0.5   0.6   0.4   0.4  0.53  0.40  0.36  0.00  0.00   82.31   90.64    2.47    0.00    1.04
 1988 349   137    25     3     5.6   14.5   16565    7.0    7.5   0.4   0.3   0.3   0.3   0.3   0.3   0.3   1.4   0.0   0.0   0.1   0.6   0.7   0.5   0.4  0.53  0.39  0.35  0.00  0.00   83.04   90.94    2.47    0.00    1.05
 1988 350   138    25     3     5.6   14.5   16565    7.3    7.2   0.4   0.5   0.3   0.3   0.3   0.3   0.3   1.3   0.0   0.0   0.1   0.5   0.6   0.5   0.4  0.53  0.39  0.34  0.00  0.00   83.80   91.67    2.47    0.00    1.05
 1988 351   139    25     3     5.6   14.1   16564    7.0    7.1   0.4   0.4   0.3   0.3   0.3   0.3   0.3   1.3   0.0   0.0   0.1   0.5   0.6   0.5   0.4  0.53  0.38  0.33  0.00  0.00   84.55   92.32    2.47    0.00    1.05
 1988 352   140    25     3     5.6   13.9   16563    6.8    7.1   0.4   0.4   0.3   0.3   0.3   0.3   0.3   1.2   0.0   0.0   0.1   0.5   0.6   0.5   0.4  0.53  0.37  0.32  0.00  0.00   85.28   92.95    2.47    0.00    1.05
 1988 353   141    25     3     5.6   13.8   16563    6.7    7.1   0.4   0.4   0.3   0.3   0.3   0.3   0.3   1.1   0.0   0.0   0.1   0.5   0.6   0.5   0.4  0.53  0.37  0.31  0.00  0.00   86.05   93.62    2.47    0.00    1.06
 1988 354   142    25     3     5.6   13.6   16562    6.6    7.0   0.4   0.4   0.3   0.3   0.3   0.3   0.3   1.1   0.0   0.0   0.1   0.4   0.6   0.5   0.4  0.53  0.36  0.30  0.00  0.00   86.81   94.30    2.47    0.00    1.06
 1988 355   143    25     3     5.6   13.3   16561    6.4    6.9   0.4   0.4   0.3   0.3   0.3   0.3   0.3   1.0   0.0   0.0   0.1   0.4   0.6   0.5   0.4  0.53  0.35  0.29  0.00  0.00   87.52   94.97    2.47    0.00    1.06
 1988 356   144    25     3     5.6   13.1   16561    6.3    6.8   0.4   0.4   0.3   0.3   0.3   0.3   0.3   1.0   0.0   0.0   0.1   0.4   0.6   0.5   0.4  0.53  0.35  0.29  0.00  0.00   88.20   95.60    2.47    0.00    1.06
 1988 357   145    25     3     5.6   12.8   16560    6.1    6.7   0.4   0.4   0.3   0.3   0.3   0.3   0.3   0.9   0.0   0.0   0.1   0.4   0.6   0.5   0.4  0.53  0.34  0.28  0.00  0.00   88.83   96.23    2.47    0.00    1.07
 1988 358   146    25     3     5.6   12.6   16560    6.0    6.6   0.2   0.4   0.4   0.3   0.3   0.3   0.3   0.9   0.0   0.0   0.1   0.4   0.6   0.5   0.4  0.53  0.34  0.27  0.00  0.00   89.42   96.81    2.47    0.00    1.07
 1988 359   147    25     3     5.6   12.5   16559    5.7    6.8   0.3   0.3   0.3   0.3   0.3   0.3   0.3   0.8   0.0   0.0   0.1   0.5   0.6   0.5   0.4  0.53  0.33  0.26  0.00  0.00   90.13   97.26    2.47    0.00    1.07
 1988 360   148    25     3     5.6   12.6   16558    5.9    6.7   0.5   0.4   0.3   0.3   0.3   0.3   0.3   0.8   0.0   0.0   0.1   0.5   0.6   0.5   0.4  0.53  0.33  0.26  0.00  0.00   90.86   97.96    2.47    0.00    1.07
 1988 361   149    25     3     5.6   12.4   16558    5.8    6.6   0.4   0.5   0.3   0.3   0.3   0.3   0.3   0.7   0.0   0.0   0.1   0.5   0.6   0.5   0.4  0.53  0.32  0.25  0.00  0.00   91.61   98.67    2.47    0.00    1.08
 1988 362   150    25     3     5.6   12.2   16557    5.8    6.5   0.5   0.5   0.3   0.3   0.3   0.3   0.3   0.7   0.0   0.0   0.1   0.4   0.6   0.5   0.4  0.53  0.31  0.24  0.00  0.00   92.33   99.43    2.47    0.00    1.08
 1988 363   151    25     3     5.6   12.0   16556    5.6    6.4   0.4   0.5   0.3   0.3   0.3   0.3   0.3   0.7   0.0   0.0   0.1   0.4   0.6   0.4   0.4  0.53  0.31  0.23  0.00  0.00   93.03  100.13    2.47    0.00    1.08
 1988 364   152    25     3     5.6   11.8   16556    5.5    6.3   0.2   0.4   0.4   0.3   0.3   0.3   0.3   0.6   0.0   0.0   0.1   0.4   0.5   0.4   0.4  0.53  0.30  0.23  0.00  0.00   93.68  100.82    2.47    0.00    1.08
 1988 365   153    25     3     5.6   11.7   16555    5.2    6.6   0.3   0.3   0.3   0.3   0.3   0.3   0.3   0.6   0.0   0.0   0.2   0.5   0.6   0.4   0.4  0.53  0.30  0.22  0.00  0.00   94.45  101.23    2.47    0.00    1.08
 1988 366   154    25     3     5.6   11.9   16554    5.5    6.3   0.7   0.5   0.3   0.3   0.3   0.3   0.3   0.6   0.0   0.0   0.0   0.5   0.6   0.4   0.4  0.53  0.29  0.21  0.00  0.00   95.18  102.04    2.47    0.00    1.09
 1989 001   155    25     3     5.6   11.6   16554    5.2    6.4   0.2   0.4   0.3   0.3   0.3   0.3   0.3   0.5   0.0   0.0   0.2   0.5   0.6   0.4   0.4  0.53  0.29  0.21  0.00  0.00   95.87  102.59    2.47    0.00    1.09
 1989 002   156    25     3     5.6   11.5   16553    5.3    6.2   0.6   0.4   0.3   0.3   0.3   0.3   0.3   0.5   0.0   0.0   0.0   0.4   0.6   0.4   0.4  0.53  0.29  0.20  0.00  0.00   96.53  103.36    2.47    0.00    1.09
 1989 003   157    25     3     5.6   11.2   16552    5.1    6.1   0.0   0.4   0.4   0.3   0.3   0.3   0.3   0.5   0.0   0.0   0.2   0.4   0.5   0.4   0.4  0.53  0.28  0.20  0.00  0.00   97.15  103.94    2.47    0.00    1.09
 1989 004   158    25     3     5.6   11.2   16552    5.1    6.1   0.4   0.4   0.3   0.3   0.3   0.3   0.3   0.5   0.0   0.0   0.0   0.4   0.6   0.4   0.3  0.53  0.28  0.19  0.00  0.00   97.96  104.73    2.47    0.00    1.09
 1989 005   159    25     3     5.6   11.2   16551    5.0    6.1   0.3   0.5   0.4   0.3   0.3   0.3   0.3   0.4   0.0   0.0   0.2   0.4   0.6   0.4   0.3  0.53  0.27  0.19  0.00  0.00   98.78  105.37    2.47    0.00    1.09
 1989 006   160    25     3     5.6   11.2   16550    5.2    5.9   0.7   0.5   0.4   0.3   0.3   0.3   0.3   0.4   0.0   0.0   0.0   0.4   0.6   0.4   0.3  0.53  0.27  0.18  0.00  0.00   99.56  106.25    2.47    0.00    1.09
 1989 007   161    25     3     5.6   10.9   16550    4.9    5.9   0.2   0.5   0.4   0.3   0.3   0.3   0.3   0.4   0.0   0.0   0.2   0.4   0.6   0.4   0.3  0.53  0.26  0.18  0.00  0.00  100.28  106.87    2.47    0.00    1.09
 1989 008   162    25     3     5.6   10.8   16549    5.1    5.7   0.5   0.4   0.4   0.3   0.3   0.3   0.3   0.4   0.0   0.0   0.0   0.3   0.5   0.4   0.3  0.53  0.26  0.17  0.00  0.00  100.95  107.65    2.47    0.00    1.09
 1989 009   163    25     3     5.6   10.7   16548    4.6    6.1   0.2   0.3   0.3   0.3   0.3   0.3   0.3   0.4   0.0   0.0   0.2   0.5   0.6   0.4   0.3  0.53  0.26  0.17  0.00  0.00  101.77  108.05    2.47    0.00    1.09
 1989 010   164    25     3     5.6   11.0   16548    5.1    5.9   0.7   0.5   0.4   0.3   0.3   0.3   0.3   0.3   0.0   0.0   0.0   0.5   0.6   0.4   0.3  0.53  0.25  0.16  0.00  0.00  102.55  108.93    2.47    0.00    1.09
 1989 011   165    25     3     5.6   10.7   16547    4.7    5.9   0.2   0.5   0.3   0.3   0.3   0.3   0.3   0.3   0.0   0.0   0.2   0.4   0.6   0.4   0.3  0.53  0.25  0.16  0.00  0.00  103.30  109.51    2.47    0.00    1.09
 1989 012   166    25     3     5.6   10.7   16546    4.9    5.8   0.6   0.4   0.3   0.3   0.3   0.3   0.3   0.3   0.0   0.0   0.0   0.4   0.6   0.3   0.3  0.53  0.24  0.15  0.00  0.00  103.98  110.27    2.47    0.00    1.09
 1989 013   167    25     3     5.6   11.3   16546    5.4    5.8   0.3   0.7   0.5   0.3   0.3   0.3   0.3   0.3   0.0   0.0   0.1   0.4   0.6   0.3   0.3  0.53  0.24  0.15  0.00  0.00  104.60  110.81    2.47    0.00    1.09
 1989 014   168    25     3     5.6   12.0   16545    6.0    6.1   0.6   0.7   0.6   0.4   0.3   0.3   0.3   0.3   0.0   0.0   0.1   0.5   0.7   0.3   0.3  0.53  0.24  0.15  0.00  0.00  105.37  111.37    2.47    0.00    1.09

*DSSAT Cropping System Model Ver. 4.0.2.000               Aug 03, 2016; 15:38:57

*RUN   3        : UYMZ                    
 MODEL          : MZCER040 - Maize           
 EXPERIMENT     : UYMZ0133 MZ    late to create DSS                             
 TREATMENT  1   : UYMZ                    

@YEAR DOY   DAS  NAPC  NI#M    NLCC   NIAD    NOAD   NITD   NHTD  NI1D  NI2D  NI3D  NI4D  NI5D  NI6D  NI7D  NI8D  NI9D  NI10  NH1D  NH2D  NH3D  NH4D  NH5D  NH6D  NH7D  NH8D  NH9D  NH10    NMNC    NITC    NDNC    NIMC    AMLC
[...]
 1992 297    85    25     3     0.0   80.4   16601   67.7   12.6   1.3   4.7   9.3  10.8   5.8   1.5   2.0   1.7   0.0   0.0   0.1   0.7   1.0   0.6   0.5  1.63  0.44  0.21  0.00  0.00   45.81   66.96    0.00    0.00    1.07
 1992 298    86    25     3     0.0   75.8   16600   63.4   12.4   1.3   4.1   8.0  10.2   5.6   1.5   2.0   1.7   0.0   0.0   0.1   0.6   0.9   0.6   0.5  1.60  0.44  0.20  0.00  0.00   46.45   67.60    0.00    0.00    1.07
 1992 299    87    25     3     0.0   70.3   16599   58.2   12.1   1.2   3.5   6.5   9.5   5.2   1.4   2.0   1.7   0.0   0.0   0.1   0.6   0.9   0.6   0.5  1.57  0.43  0.20  0.00  0.00   47.14   68.28    0.00    0.00    1.07
 1992 300    88    25     3     0.0   68.6   16599   56.6   12.0   1.3   3.3   6.1   9.2   5.1   1.4   2.0   1.7   0.0   0.0   0.1   0.5   0.9   0.6   0.5  1.56  0.43  0.20  0.00  0.00   47.86   68.97    0.00    0.00    1.08
 1992 301    89    25     3     0.0   61.1   16598   49.5   11.5   1.1   2.4   4.3   8.2   4.6   1.4   2.0   1.7   0.0   0.0   0.1   0.5   0.8   0.6   0.5  1.50  0.43  0.20  0.00  0.00   48.61   69.70    0.00    0.00    1.08
 1992 302    90    25     3     0.0   54.4   16597   43.3   11.1   0.9   1.8   2.9   7.2   4.1   1.3   2.1   1.7   0.0   0.0   0.1   0.5   0.7   0.5   0.5  1.44  0.43  0.19  0.00  0.00   49.35   70.42    0.00    0.00    1.08
 1992 303    91    25     3     0.0   53.4   16596   42.3   11.1   0.9   1.7   2.7   7.0   4.0   1.3   2.1   1.7   0.0   0.0   0.1   0.5   0.7   0.5   0.5  1.42  0.42  0.19  0.00  0.00   50.04   71.03    0.00    0.00    1.08
 1992 304    92    25     3     0.0   48.7   16596   38.0   10.7   0.8   1.3   2.0   6.2   3.6   1.2   2.1   1.7   0.0   0.0   0.1   0.5   0.7   0.5   0.5  1.36  0.42  0.19  0.00  0.00   50.67   71.62    0.00    0.00    1.09
 1992 305    93    25     3     0.0   44.8   16595   34.5   10.3   0.7   1.0   1.4   5.5   3.3   1.1   2.1   1.7   0.0   0.0   0.1   0.4   0.7   0.5   0.5  1.30  0.42  0.19  0.00  0.00   51.25   72.17    0.00    0.00    1.09
 1992 306    94    25     3     0.0   40.4   16595   30.5    9.9   0.2   0.7   1.0   4.7   2.9   1.0   2.1   1.7   0.0   0.0   0.1   0.4   0.6   0.5   0.5  1.22  0.42  0.19  0.00  0.00   51.78   72.68    0.00    0.00    1.09
 1992 307    95    25     3     0.0   35.1   16594   25.6    9.5   0.2   0.4   0.5   3.7   2.3   0.9   2.1   1.7   0.0   0.0   0.2   0.5   0.6   0.5   0.5  1.11  0.42  0.18  0.00  0.00   52.39   73.03    0.00    0.00    1.09
 1992 308    96    25     3     0.0   31.2   16594   22.2    9.0   0.4   0.3   0.4   2.8   1.8   0.7   2.1   1.8   0.0   0.0   0.1   0.5   0.6   0.5   0.5  1.01  0.41  0.18  0.00  0.00   53.06   73.65    0.00    0.00    1.10
 1992 309    97    25     3     0.0   28.5   16593   19.5    9.0   0.3   0.3   0.3   2.1   1.4   0.6   2.1   1.8   0.0   0.0   0.2   0.6   0.7   0.5   0.5  0.93  0.41  0.18  0.00  0.00   53.73   73.94    0.00    0.00    1.10
 1992 310    98    25     3     0.0   26.4   16592   18.0    8.4   0.5   0.4   0.3   1.6   1.1   0.5   2.2   1.8   0.0   0.0   0.1   0.5   0.6   0.5   0.5  0.86  0.41  0.18  0.00  0.00   54.38   74.56    0.00    0.00    1.10
 1992 311    99    25     3     0.0   24.6   16592   16.4    8.2   0.4   0.4   0.3   1.2   0.9   0.4   2.2   1.8   0.0   0.0   0.1   0.5   0.6   0.5   0.5  0.81  0.41  0.18  0.00  0.00   54.99   75.04    0.00    0.00    1.11
 1992 312   100    25     3     0.0   23.2   16591   15.3    8.0   0.4   0.4   0.3   0.9   0.7   0.4   2.2   1.8   0.0   0.0   0.1   0.5   0.6   0.5   0.5  0.76  0.41  0.18  0.00  0.00   55.55   75.49    0.00    0.00    1.11
 1992 313   101    25     3     0.0   22.2   16591   14.4    7.8   0.3   0.3   0.3   0.7   0.6   0.3   2.2   1.8   0.0   0.0   0.1   0.5   0.6   0.5   0.5  0.73  0.41  0.17  0.00  0.00   56.07   75.90    0.00    0.00    1.11
 1992 314   102    25     3     0.0   21.4   16590   13.7    7.6   0.4   0.3   0.3   0.6   0.5   0.3   2.2   1.8   0.0   0.0   0.1   0.5   0.6   0.5   0.5  0.70  0.40  0.17  0.00  0.00   56.60   76.32    0.00    0.00    1.11
 1992 315   103    25     3     0.0   20.9   16590   13.4    7.5   0.4   0.4   0.3   0.5   0.4   0.3   2.2   1.8   0.0   0.0   0.1   0.5   0.6   0.5   0.5  0.67  0.40  0.17  0.00  0.00   57.17   76.80    0.00    0.00    1.12
 1992 316   104    25     3     0.0   20.6   16589   13.2    7.4   0.4   0.4   0.3   0.4   0.3   0.3   2.2   1.8   0.0   0.0   0.1   0.5   0.6   0.5   0.5  0.65  0.40  0.17  0.00  0.00   57.76   77.30    0.00    0.00    1.12
 1992 317   105    25     3     0.0   20.4   16589   13.1    7.3   0.4   0.4   0.3   0.3   0.3   0.3   2.2   1.8   0.0   0.0   0.1   0.5   0.6   0.5   0.5  0.64  0.40  0.17  0.00  0.00   58.37   77.83    0.00    0.00    1.12
 1992 318   106    25     3     0.0   20.2   16588   13.1    7.2   0.4   0.4   0.3   0.3   0.3   0.3   2.3   1.8   0.0   0.0   0.1   0.4   0.6   0.5   0.5  0.63  0.40  0.17  0.00  0.00   58.99   78.39    0.00    0.00    1.12
 1992 319   107    25     3     0.0   20.1   16587   13.1    7.0   0.2   0.4   0.4   0.3   0.3   0.3   2.3   1.8   0.0   0.0   0.1   0.4   0.5   0.5   0.5  0.62  0.40  0.17  0.00  0.00   59.58   78.96    0.00    0.00    1.13
 1992 320   108    25     3     0.0   19.6   16587   12.4    7.3   0.1   0.2   0.3   0.4   0.3   0.3   2.1   1.8   0.0   0.0   0.2   0.5   0.6   0.5   0.4  0.61  0.40  0.17  0.00  0.00   60.30   79.32    0.00    0.00    1.13
 1992 321   109    25     3     0.0   19.3   16586   11.7    7.6   0.2   0.2   0.3   0.3   0.3   0.3   1.8   1.8   0.0   0.0   0.3   0.6   0.7   0.5   0.4  0.60  0.39  0.16  0.00  0.00   61.09   79.58    0.00    0.00    1.13
 1992 322   110    25     3     0.0   19.0   16585   11.7    7.3   0.7   0.4   0.3   0.3   0.3   0.3   1.6   1.8   0.0   0.0   0.0   0.5   0.7   0.5   0.4  0.59  0.39  0.16  0.00  0.00   61.84   80.30    0.00    0.00    1.13
 1992 323   111    25     3     0.0   18.3   16585   11.1    7.2   0.3   0.4   0.3   0.3   0.3   0.3   1.4   1.8   0.0   0.0   0.1   0.5   0.6   0.5   0.4  0.59  0.39  0.16  0.00  0.00   62.56   80.82    0.00    0.00    1.14
 1992 324   112    25     3     0.0   17.9   16584   10.7    7.1   0.4   0.4   0.3   0.3   0.3   0.3   1.3   1.8   0.0   0.0   0.1   0.5   0.6   0.5   0.4  0.58  0.39  0.16  0.00  0.00   63.25   81.37    0.00    0.00    1.14
 1992 325   113    25     3     0.0   17.4   16584   10.3    7.1   0.4   0.4   0.3   0.3   0.3   0.3   1.1   1.8   0.0   0.0   0.1   0.5   0.6   0.5   0.4  0.58  0.39  0.16  0.00  0.00   63.93   81.89    0.00    0.00    1.14
 1992 326   114    25     3     0.0   17.1   16583   10.1    7.1   0.4   0.4   0.3   0.3   0.3   0.3   1.0   1.9   0.0   0.0   0.1   0.5   0.6   0.5   0.4  0.57  0.39  0.16  0.00  0.00   64.61   82.42    0.00    0.00    1.15
 1992 327   115    25     3     0.0   16.8   16582    9.8    7.0   0.4   0.4   0.3   0.3   0.3   0.3   0.9   1.9   0.0   0.0   0.1   0.5   0.6   0.5   0.4  0.57  0.39  0.16  0.00  0.00   65.29   82.96    0.00    0.00    1.15
 1992 328   116    25     3     0.0   16.6   16582    9.5    7.0   0.4   0.4   0.3   0.3   0.3   0.3   0.8   1.9   0.0   0.0   0.1   0.5   0.6   0.5   0.4  0.57  0.39  0.16  0.00  0.00   65.95   83.48    0.00    0.00    1.15
 1992 329   117    25     3     0.0   16.3   16581    9.3    7.0   0.4   0.4   0.3   0.3   0.3   0.3   0.7   1.9   0.0   0.0   0.1   0.5   0.6   0.5   0.4  0.57  0.38  0.16  0.00  0.00   66.56   83.98    0.00    0.00    1.15
 1992 330   118    25     3     0.0   16.0   16581    9.1    6.9   0.4   0.4   0.3   0.3   0.3   0.3   0.6   1.9   0.0   0.0   0.1   0.5   0.6   0.5   0.4  0.56  0.38  0.16  0.00  0.00   67.14   84.47    0.00    0.00    1.15
 1992 331   119    25     3     0.0   15.8   16580    8.9    6.9   0.4   0.4   0.3   0.3   0.3   0.3   0.5   1.9   0.0   0.0   0.1   0.5   0.6   0.5   0.4  0.56  0.38  0.15  0.00  0.00   67.67   84.92    0.00    0.00    1.16
 1992 332   120    25     3     0.0   15.6   16580    8.8    6.8   0.4   0.4   0.3   0.3   0.3   0.3   0.5   1.9   0.0   0.0   0.1   0.5   0.6   0.5   0.4  0.56  0.38  0.15  0.00  0.00   68.20   85.39    0.00    0.00    1.16
 1992 333   121    25     3     0.0   15.5   16579    8.7    6.7   0.2   0.4   0.4   0.3   0.3   0.3   0.4   1.9   0.0   0.0   0.1   0.4   0.6   0.5   0.4  0.56  0.37  0.15  0.00  0.00   68.73   85.88    0.00    0.00    1.16
 1992 334   122    25     3     0.0   15.4   16579    8.4    7.0   0.2   0.3   0.3   0.3   0.3   0.3   0.4   1.9   0.0   0.0   0.2   0.6   0.6   0.5   0.4  0.56  0.37  0.15  0.00  0.00   69.40   86.21    0.00    0.00    1.16
 1992 335   123    25     3     0.0   15.5   16578    8.7    6.8   0.4   0.4   0.3   0.3   0.3   0.3   0.4   1.9   0.0   0.0   0.1   0.5   0.6   0.5   0.4  0.55  0.37  0.15  0.00  0.00   70.08   86.88    0.00    0.00    1.17
 1992 336   124    25     3     0.0   15.5   16577    8.2    7.2   0.3   0.3   0.3   0.3   0.3   0.3   0.3   1.9   0.0   0.0   0.2   0.6   0.7   0.5   0.4  0.55  0.36  0.15  0.00  0.00   70.82   87.08    0.00    0.00    1.17
 1992 337   125    25     3     0.0   15.6   16577    8.6    7.0   0.6   0.4   0.3   0.3   0.3   0.3   0.3   1.9   0.0   0.0   0.1   0.5   0.7   0.5   0.4  0.55  0.36  0.15  0.00  0.00   71.58   87.71    0.00    0.00    1.17
 1992 338   126    25     3     0.0   15.2   16576    8.3    6.9   0.4   0.4   0.3   0.3   0.3   0.3   0.3   1.8   0.0   0.0   0.1   0.5   0.6   0.5   0.4  0.55  0.36  0.15  0.00  0.00   72.31   88.29    0.00    0.00    1.17
 1992 339   127    25     3     0.0   14.9   16575    8.1    6.9   0.4   0.4   0.3   0.3   0.3   0.3   0.3   1.7   0.0   0.0   0.1   0.5   0.6   0.5   0.4  0.55  0.35  0.15  0.00  0.00   73.04   88.88    0.00    0.00    1.18
 1992 340   128    25     3     0.0   14.6   16575    7.8    6.8   0.4   0.4   0.3   0.3   0.3   0.3   0.3   1.6   0.0   0.0   0.1   0.5   0.6   0.5   0.4  0.55  0.35  0.15  0.00  0.00   73.77   89.46    0.00    0.00    1.18
 1992 341   129    25     3     0.0   14.4   16574    7.6    6.8   0.2   0.4   0.4   0.3   0.3   0.3   0.3   1.5   0.0   0.0   0.1   0.5   0.6   0.5   0.4  0.55  0.35  0.15  0.00  0.00   74.50   90.04    0.00    0.00    1.18
 1992 342   130    25     3     0.0   14.2   16573    7.0    7.3   0.2   0.3   0.3   0.3   0.3   0.3   0.3   1.4   0.0   0.0   0.2   0.6   0.7   0.6   0.4  0.54  0.34  0.15  0.00  0.00   75.25   90.26    0.00    0.00    1.18
 1992 343   131    25     3     0.0   14.3   16573    7.1    7.2   0.6   0.3   0.3   0.3   0.3   0.3   0.3   1.4   0.0   0.0   0.0   0.7   0.7   0.5   0.4  0.54  0.34  0.15  0.00  0.00   76.02   90.77    0.00    0.00    1.19
 1992 344   132    25     3     0.0   13.9   16572    7.0    6.9   0.3   0.5   0.3   0.3   0.3   0.3   0.3   1.3   0.0   0.0   0.1   0.5   0.6   0.5   0.4  0.54  0.34  0.15  0.00  0.00   76.79   91.42    0.00    0.00    1.19
 1992 345   133    25     3     0.0   13.6   16571    6.8    6.8   0.5   0.4   0.3   0.3   0.3   0.3   0.3   1.2   0.0   0.0   0.1   0.5   0.6   0.5   0.4  0.54  0.33  0.15  0.00  0.00   77.54   92.06    0.00    0.00    1.19
 1992 346   134    25     3     0.0   13.4   16570    6.6    6.8   0.4   0.4   0.3   0.3   0.3   0.3   0.3   1.1   0.0   0.0   0.1   0.5   0.6   0.5   0.4  0.54  0.33  0.14  0.00  0.00   78.29   92.65    0.00    0.00    1.20
 1992 347   135    25     3     0.0   13.2   16570    6.5    6.8   0.4   0.4   0.3   0.3   0.3   0.3   0.3   1.1   0.0   0.0   0.1   0.5   0.6   0.5   0.5  0.54  0.32  0.14  0.00  0.00   79.01   93.24    0.00    0.00    1.20
 1992 348   136    25     3     0.0   13.1   16569    6.3    6.8   0.4   0.4   0.3   0.3   0.3   0.3   0.3   1.0   0.0   0.0   0.1   0.5   0.6   0.5   0.5  0.54  0.32  0.14  0.00  0.00   79.73   93.83    0.00    0.00    1.20
 1992 349   137    25     3     0.0   12.9   16569    6.2    6.7   0.4   0.4   0.3   0.3   0.3   0.3   0.3   0.9   0.0   0.0   0.1   0.5   0.6   0.5   0.5  0.54  0.32  0.14  0.00  0.00   80.44   94.43    0.00    0.00    1.20
 1992 350   138    25     3     0.0   12.7   16568    6.0    6.6   0.4   0.4   0.3   0.3   0.3   0.3   0.3   0.9   0.0   0.0   0.1   0.5   0.6   0.5   0.4  0.54  0.31  0.14  0.00  0.00   81.11   95.04    0.00    0.00    1.21
 1992 351   139    25     3     0.0   12.5   16567    5.9    6.5   0.4   0.4   0.3   0.3   0.3   0.3   0.3   0.8   0.0   0.0   0.1   0.4   0.6   0.5   0.4  0.54  0.31  0.14  0.00  0.00   81.75   95.63    0.00    0.00    1.21
 1992 352   140    25     3     0.0   12.3   16567    5.8    6.5   0.2   0.4   0.4   0.3   0.3   0.3   0.3   0.8   0.0   0.0   0.1   0.4   0.6   0.5   0.4  0.54  0.31  0.14  0.00  0.00   82.37   96.22    0.00    0.00    1.21
 1992 353   141    25     3     0.0   12.2   16566    5.5    6.7   0.2   0.3   0.3   0.3   0.3   0.3   0.3   0.7   0.0   0.0   0.2   0.5   0.6   0.5   0.4  0.54  0.30  0.14  0.00  0.00   83.10   96.59    0.00    0.00    1.21
 1992 354   142    25     3     0.0   12.3   16565    5.7    6.5   0.6   0.4   0.3   0.3   0.3   0.3   0.3   0.7   0.0   0.0   0.0   0.5   0.6   0.5   0.4  0.53  0.30  0.14  0.00  0.00   83.83   97.35    0.00    0.00    1.22
 1992 355   143    25     3     0.0   12.0   16565    5.5    6.5   0.3   0.4   0.3   0.3   0.3   0.3   0.3   0.6   0.0   0.0   0.2   0.5   0.6   0.5   0.4  0.53  0.29  0.13  0.00  0.00   84.55   97.92    0.00    0.00    1.22
 1992 356   144    25     3     0.0   12.0   16564    5.5    6.4   0.5   0.4   0.3   0.3   0.3   0.3   0.3   0.6   0.0   0.0   0.1   0.5   0.6   0.5   0.4  0.53  0.29  0.13  0.00  0.00   85.27   98.62    0.00    0.00    1.22
 1992 357   145    25     3     0.0   11.7   16563    5.4    6.4   0.4   0.4   0.3   0.3   0.3   0.3   0.3   0.6   0.0   0.0   0.1   0.4   0.6   0.5   0.4  0.53  0.29  0.13  0.00  0.00   85.97   99.25    0.00    0.00    1.22
 1992 358   146    25     3     0.0   11.6   16563    5.2    6.4   0.3   0.4   0.3   0.3   0.3   0.3   0.3   0.5   0.0   0.0   0.3   0.4   0.6   0.5   0.4  0.53  0.28  0.13  0.00  0.00   86.66   99.82    0.00    0.00    1.23
 1992 359   147    25     3     0.0   11.6   16562    5.4    6.2   0.6   0.3   0.4   0.3   0.3   0.3   0.3   0.5   0.0   0.0   0.0   0.4   0.6   0.5   0.4  0.53  0.28  0.13  0.00  0.00   87.34  100.60    0.00    0.00    1.23
 1992 360   148    25     3     0.0   11.4   16562    4.8    6.6   0.2   0.3   0.3   0.3   0.3   0.3   0.3   0.5   0.0   0.0   0.2   0.6   0.7   0.5   0.4  0.53  0.28  0.13  0.00  0.00   88.11  100.87    0.00    0.00    1.23
 1992 361   149    25     3     0.0   11.6   16561    5.2    6.4   0.6   0.5   0.3   0.3   0.3   0.3   0.3   0.5   0.0   0.0   0.1   0.5   0.6   0.5   0.4  0.53  0.27  0.13  0.00  0.00   88.84  101.61    0.00    0.00    1.23
 1992 362   150    25     3     0.0   11.3   16560    5.0    6.3   0.4   0.4   0.3   0.3   0.3   0.3   0.3   0.4   0.0   0.0   0.1   0.5   0.6   0.5   0.4  0.53  0.27  0.12  0.00  0.00   89.55  102.17    0.00    0.00    1.23
 1992 363   151    25     3     0.0   11.3   16560    5.0    6.3   0.4   0.4   0.3   0.3   0.3   0.3   0.3   0.4   0.0   0.0   0.1   0.5   0.6   0.5   0.4  0.53  0.27  0.12  0.00  0.00   90.26  102.78    0.00    0.00    1.23
 1992 364   152    25     3     0.0   11.1   16559    4.9    6.2   0.4   0.4   0.3   0.3   0.3   0.3   0.3   0.4   0.0   0.0   0.1   0.5   0.6   0.5   0.4  0.53  0.26  0.12  0.00  0.00   90.94  103.39    0.00    0.00    1.24
 1992 365   153    25     3     0.0   11.0   16558    4.8    6.2   0.4   0.4   0.3   0.3   0.3   0.3   0.3   0.4   0.0   0.0   0.1   0.4   0.6   0.4   0.4  0.53  0.26  0.12  0.00  0.00   91.60  103.96    0.00    0.00    1.24
 1992 366   154    25     3     0.0   10.9   16558    4.8    6.2   0.1   0.3   0.4   0.3   0.4   0.3   0.3   0.3   0.0   0.0   0.1   0.4   0.6   0.4   0.4  0.53  0.26  0.12  0.00  0.00   92.23  104.52    0.00    0.00    1.24
 1993 001   155    25     3     0.0   11.0   16557    4.4    6.5   0.2   0.1   0.2   0.2   0.3   0.3   0.4   0.3   0.0   0.0   0.1   0.6   0.7   0.5   0.4  0.53  0.26  0.12  0.00  0.00   92.92  104.75    0.00    0.00    1.24
 1993 002   156    25     3     0.0   11.2   16557    4.2    7.1   0.2   0.1   0.2   0.2   0.2   0.3   0.3   0.4   0.0   0.0   0.2   0.7   0.8   0.5   0.4  0.54  0.26  0.12  0.00  0.00   93.52  104.81    0.00    0.00    1.25
 1993 003   157    25     3     0.1   11.4   16556    4.0    7.4   0.2   0.2   0.2   0.2   0.2   0.3   0.3   0.4   0.0   0.0   0.3   0.7   0.8   0.6   0.5  0.55  0.27  0.12  0.00  0.00   94.17  104.90    0.00    0.00    1.25
 1993 004   158    25     3     0.2   11.5   16556    3.8    7.7   0.2   0.2   0.2   0.2   0.2   0.2   0.3   0.3   0.0   0.0   0.4   0.8   0.8   0.6   0.5  0.56  0.28  0.12  0.00  0.00   94.81  105.00    0.00    0.00    1.25
 1993 005   159    25     3     0.4   11.7   16555    3.8    8.0   0.2   0.2   0.2   0.2   0.2   0.2   0.2   0.3   0.0   0.0   0.4   0.8   0.8   0.6   0.5  0.57  0.28  0.13  0.00  0.00   95.47  105.12    0.01    0.00    1.25
 1993 006   160    25     3     0.4   11.9   16554    4.1    7.8   0.8   0.2   0.2   0.2   0.2   0.2   0.2   0.3   0.0   0.0   0.1   0.8   0.8   0.6   0.6  0.58  0.29  0.13  0.00  0.00   96.22  105.54    0.01    0.00    1.26
 1993 007   161    25     3     0.4   11.7   16554    4.2    7.6   0.3   0.5   0.2   0.2   0.3   0.2   0.2   0.2   0.0   0.0   0.1   0.5   0.8   0.6   0.6  0.58  0.30  0.13  0.00  0.00   97.03  105.96    0.01    0.00    1.27
 1993 008   162    25     3     0.4   11.9   16553    4.4    7.5   0.3   0.4   0.4   0.3   0.3   0.3   0.3   0.3   0.0   0.0   0.1   0.5   0.7   0.6   0.6  0.59  0.31  0.13  0.00  0.00   97.89  106.50    0.01    0.00    1.27
 1993 009   163    25     3     0.5   12.0   16552    4.0    8.0   0.3   0.3   0.3   0.3   0.2   0.2   0.3   0.2   0.0   0.0   0.2   0.6   0.7   0.7   0.6  0.60  0.31  0.14  0.00  0.00   98.75  106.62    0.02    0.00    1.27
 1993 010   164    25     3     0.5   12.4   16552    4.4    8.0   0.6   0.3   0.3   0.3   0.3   0.3   0.3   0.3   0.0   0.0   0.0   0.7   0.8   0.7   0.6  0.60  0.32  0.14  0.00  0.00   99.64  107.02    0.02    0.00    1.28
 1993 011   165    25     3     0.5   12.3   16551    4.5    7.9   0.3   0.5   0.3   0.3   0.3   0.3   0.3   0.3   0.0   0.0   0.2   0.5   0.7   0.7   0.6  0.60  0.32  0.14  0.00  0.00  100.54  107.49    0.02    0.00    1.28
 1993 012   166    25     3     0.5   12.3   16550    4.8    7.5   0.5   0.4   0.4   0.3   0.3   0.3   0.3   0.3   0.0   0.0   0.1   0.5   0.6   0.6   0.6  0.60  0.32  0.14  0.00  0.00  101.45  108.27    0.02    0.00    1.28
 1993 013   167    25     3     0.5   12.1   16549    4.7    7.4   0.4   0.4   0.3   0.3   0.3   0.3   0.3   0.3   0.0   0.0   0.1   0.5   0.6   0.6   0.6  0.60  0.32  0.14  0.00  0.00  102.39  108.99    0.02    0.00    1.29
 1993 014   168    25     3     0.5   12.1   16549    4.8    7.3   0.5   0.4   0.3   0.3   0.3   0.3   0.3   0.3   0.0   0.0   0.1   0.5   0.6   0.6   0.6  0.60  0.33  0.14  0.00  0.00  103.36  109.76    0.02    0.00    1.29
 1993 015   169    25     3     0.5   12.0   16548    4.7    7.3   0.1   0.3   0.4   0.3   0.3   0.3   0.3   0.3   0.0   0.0   0.1   0.5   0.6   0.6   0.6  0.60  0.33  0.14  0.00  0.00  104.35  110.50    0.02    0.00    1.29
 1993 016   170    25     3     0.5   13.0   16547    4.9    8.0   0.3   0.4   0.4   0.3   0.3   0.3   0.3   0.3   0.0   0.0   0.1   0.6   0.8   0.6   0.6  0.63  0.33  0.14  0.00  0.00  105.35  110.75    0.02    0.00    1.29
 1993 017   171    25     3     0.6   13.9   16546    5.2    8.7   0.5   0.4   0.4   0.3   0.3   0.3   0.3   0.3   0.0   0.0   0.1   0.8   0.9   0.7   0.6  0.66  0.34  0.14  0.00  0.00  106.34  111.06    0.02    0.00    1.30
 1993 018   172    25     3     0.6   14.9   16545    5.8    9.1   0.7   0.7   0.4   0.4   0.3   0.3   0.3   0.3   0.0   0.0   0.1   0.7   1.0   0.7   0.7  0.68  0.34  0.14  0.00  0.00  107.30  111.63    0.02    0.00    1.30
