*GROWTH ASPECTS OUTPUT FILE

*DSSAT Cropping System Model Ver. 4.0.2.000               Aug 03, 2016; 14:33:02

*RUN   1        : UYMZ                    
 MODEL          : MZCER040 - Maize           
 EXPERIMENT     : UYMZ0120 MZ    late to create DSS                             
 TREATMENT  1   : UYMZ                    

@YEAR DOY   DAS   DAP   L#SD   GSTD   LAID   LWAD   SWAD   GWAD   RWAD   CWAD   G#AD   GWGD   HIAD   PWAD   P#AD   WSPD   WSGD   NSTD   EWSD   LN%D   SH%D   HIPD   PWDD   PWTD     SLAD   CHTD   CWID   RDPD   RL1D   RL2D   RL3D   RL4D   RL5D   RL6D   RL7D   RL8D   RL9D   RL10   CDAD   LDAD   SDAD   SNW0C   SNW1C
 1987 187     3     0    0.0      0   0.00      0      0      0      0      0      0    0.0  0.000      0      0  0.000  0.000  0.000  0.000   0.00   0.00   0.00      0      0      0.0   0.00   0.00   0.03   0.00   0.00   0.00   0.00   0.00   0.00   0.00   0.00   0.00   0.00      0      0      0       0       0
 1987 188     4     1    0.0      0   0.00      0      0      0      0      0      0    0.0  0.000      0      0  0.000  0.000  0.000  0.000   0.00   0.00   0.00      0      0      0.0   0.00   0.00   0.03   0.00   0.00   0.00   0.00   0.00   0.00   0.00   0.00   0.00   0.00      0      0      0       0       0
 1987 189     5     2    0.0      0   0.00      0      0      0      0      0      0    0.0  0.000      0      0  0.000  0.000  0.000  0.000   0.00   0.00   0.00      0      0      0.0   0.00   0.00   0.04   0.00   0.00   0.00   0.00   0.00   0.00   0.00   0.00   0.00   0.00      0      0      0       0       0
 1987 190     6     3    0.0      0   0.00      0      0      0      0      0      0    0.0  0.000      0      0  0.000  0.000  0.000  0.000   0.00   0.00   0.00      0      0      0.0   0.00   0.00   0.05   0.00   0.00   0.00   0.00   0.00   0.00   0.00   0.00   0.00   0.00      0      0      0       0       0
 1987 191     7     4    0.0      0   0.00      0      0      0      0      0      0    0.0  0.000      0      0  0.000  0.000  0.000  0.000   0.00   0.00   0.00      0      0      0.0   0.00   0.00   0.07   0.00   0.00   0.00   0.00   0.00   0.00   0.00   0.00   0.00   0.00      0      0      0       0       0
 1987 192     8     5    0.0      0   0.00      0      0      0      0      0      0    0.0  0.000      0      0  0.000  0.000  0.000  0.000   0.00   0.00   0.00      0      0      0.0   0.00   0.00   0.08   0.00   0.00   0.00   0.00   0.00   0.00   0.00   0.00   0.00   0.00      0      0      0       0       0
 1987 193     9     6    0.0      0   0.00      0      0      0      0      0      0    0.0  0.000      0      0  0.000  0.000  0.000  0.000   0.00   0.00   0.00      0      0      0.0   0.00   0.00   0.09   0.00   0.00   0.00   0.00   0.00   0.00   0.00   0.00   0.00   0.00      0      0      0       0       0
 1987 194    10     7    0.0      0   0.00      0      0      0      0      0      0    0.0  0.000      0      0  0.000  0.000  0.000  0.000   0.00   0.00   0.00      0      0      0.0   0.00   0.00   0.10   0.00   0.00   0.00   0.00   0.00   0.00   0.00   0.00   0.00   0.00      0      0      0       0       0
 1987 195    11     8    0.0      0   0.00      0      0      0      0      0      0    0.0  0.000      0      0  0.000  0.000  0.000  0.000   0.00   0.00   0.00      0      0      0.0   0.00   0.00   0.11   0.00   0.00   0.00   0.00   0.00   0.00   0.00   0.00   0.00   0.00      0      0      0       0       0
 1987 196    12     9    2.0      1   0.00     14     14      0     14     28      0    0.0  0.000      0      0  0.000  0.000  0.012  0.000   4.40   0.00   0.00      0      0     27.4   0.00   0.00   0.13   0.28   0.09   0.00   0.00   0.00   0.00   0.00   0.00   0.00   0.00      0      0      0       0       0
 1987 197    13    10    2.0      1   0.01     14     14      0     14     28      0    0.0  0.000      0      0  0.000  0.000  0.015  0.000   4.52   0.00   0.00      0      0     44.8   0.00   0.00   0.14   0.28   0.09   0.00   0.00   0.00   0.00   0.00   0.00   0.00   0.00      0      0      0       0       0
 1987 198    14    11    2.0      1   0.01     14     14      0     14     28      0    0.0  0.000      0      0  0.000  0.000  0.000  0.000   4.52   0.00   0.00      0      0     50.2   0.00   0.00   0.14   0.28   0.09   0.00   0.00   0.00   0.00   0.00   0.00   0.00   0.00      0      0      0       0       0
 1987 199    15    12    2.0      1   0.01     14     14      0     14     28      0    0.0  0.000      0      0  0.000  0.000  0.000  0.000   4.51   0.00   0.00      0      0     48.8   0.00   0.00   0.14   0.28   0.10   0.00   0.00   0.00   0.00   0.00   0.00   0.00   0.00      0      0      0       0       0
 1987 200    16    13    2.0      1   0.00     14     14      0     14     28      0    0.0  0.000      0      0  0.000  0.000  0.000  0.000   4.51   0.00   0.00      0      0      3.8   0.00   0.00   0.14   0.28   0.10   0.00   0.00   0.00   0.00   0.00   0.00   0.00   0.00      0      0      0       0       0
 1987 201    17    14    2.0      1   0.00     14     14      0     14     28      0    0.0  0.000      0      0  0.000  0.000  0.000  0.000   4.51   0.00   0.00      0      0      3.9   0.00   0.00   0.14   0.28   0.09   0.00   0.00   0.00   0.00   0.00   0.00   0.00   0.00      0      0      0       0       0
 1987 202    18    15    2.0      1   0.00     14     14      0     14     28      0    0.0  0.000      0      0  0.000  0.000  0.000  0.000   4.51   0.00   0.00      0      0      4.2   0.00   0.00   0.15   0.28   0.09   0.00   0.00   0.00   0.00   0.00   0.00   0.00   0.00      0      0      0       0       0
 1987 203    19    16    2.0      1   0.00     14     14      0     14     28      0    0.0  0.000      0      0  0.000  0.000  0.000  0.000   4.51   0.00   0.00      0      0      6.3   0.00   0.00   0.15   0.27   0.09   0.00   0.00   0.00   0.00   0.00   0.00   0.00   0.00      0      0      0       0       0
 1987 204    20    17    2.0      1   0.00     14     14      0     14     28      0    0.0  0.000      0      0  0.000  0.000  0.000  0.000   4.51   0.00   0.00      0      0     17.7   0.00   0.00   0.15   0.26   0.09   0.00   0.00   0.00   0.00   0.00   0.00   0.00   0.00      0      0      0       0       0
 1987 205    21    18    3.0      1   0.00     14     14      0     14     28      0    0.0  0.000      0      0  0.000  0.000  0.000  0.000   4.51   0.00   0.00      0      0     35.0   0.00   0.00   0.16   0.24   0.08   0.00   0.00   0.00   0.00   0.00   0.00   0.00   0.00      0      0      0       0       0
 1987 206    22    19    3.0      1   0.01     14     14      0     14     28      0    0.0  0.000      0      0  0.000  0.000  0.000  0.162   4.51   0.00   0.00      0      0     65.2   0.00   0.00   0.18   0.23   0.08   0.00   0.00   0.00   0.00   0.00   0.00   0.00   0.00      0      0      0       0       0
 1987 207    23    20    3.0      1   0.01     14     14      0     15     28      0    0.0  0.000      0      0  0.000  0.000  0.000  0.202   4.51   0.00   0.00      0      0     72.0   0.00   0.00   0.18   0.21   0.08   0.00   0.00   0.00   0.00   0.00   0.00   0.00   0.00      0      0      0       0       0
 1987 208    24    21    4.0      1   0.02     14     14      0     15     28      0    0.0  0.000      0      0  0.000  0.000  0.000  0.277   4.51   0.00   0.00      0      0    122.6   0.00   0.00   0.19   0.20   0.08   0.00   0.00   0.00   0.00   0.00   0.00   0.00   0.00      0      0      0       0       0
 1987 209    25    22    4.0      1   0.02     14     14      0     16     28      0    0.0  0.000      0      0  0.000  0.000  0.000  0.196   4.51   0.00   0.00      0      0    151.4   0.00   0.00   0.19   0.19   0.09   0.01   0.00   0.00   0.00   0.00   0.00   0.00   0.00      0      0      0       0       0
 1987 210    26    23    4.0      1   0.03     14     14      0     17     28      0    0.0  0.000      0      0  0.000  0.000  0.000  0.015   4.51   0.00   0.00      0      0    191.6   0.00   0.00   0.20   0.19   0.09   0.01   0.00   0.00   0.00   0.00   0.00   0.00   0.00      0      0      0       0       0
 1987 211    27    24    4.0      1   0.03     14     14      0     18     28      0    0.0  0.000      0      0  0.000  0.000  0.000  0.037   4.37   0.00   0.00      0      0    208.7   0.00   0.00   0.20   0.18   0.10   0.01   0.00   0.00   0.00   0.00   0.00   0.00   0.00      0      0      0       0       0
 1987 212    28    25    4.0      1   0.03     14     14      0     19     28      0    0.0  0.000      0      0  0.000  0.000  0.000  0.044   4.37   0.00   0.00      0      0    203.0   0.00   0.00   0.20   0.17   0.11   0.02   0.00   0.00   0.00   0.00   0.00   0.00   0.00      0      0      0       0       0
 1987 213    29    26    4.0      1   0.03     14     14      0     22     28      0    0.0  0.000      0      0  0.000  0.000  0.000  0.034   4.35   0.00   0.00      0      0    237.2   0.00   0.00   0.21   0.18   0.14   0.03   0.00   0.00   0.00   0.00   0.00   0.00   0.00      0      0      0       0       0
 1987 214    30    27    4.0      1   0.04     15     14      0     26     29      0    0.0  0.000      0      0  0.000  0.000  0.000  0.025   4.23   0.00   0.00      0      0    279.3   0.00   0.00   0.21   0.18   0.17   0.05   0.00   0.00   0.00   0.00   0.00   0.00   0.00      0      0      0       0       0
 1987 215    31    28    4.0      1   0.04     16     14      0     29     30      0    0.0  0.000      0      0  0.000  0.000  0.000  0.009   4.12   0.00   0.00      0      0    253.5   0.00   0.00   0.22   0.19   0.20   0.07   0.00   0.00   0.00   0.00   0.00   0.00   0.00      0      0      0       0       0
 1987 216    32    29    4.0      1   0.04     17     14      0     30     31      0    0.0  0.000      0      0  0.000  0.000  0.000  0.000   4.21   0.00   0.00      0      0    250.6   0.00   0.00   0.22   0.19   0.21   0.07   0.00   0.00   0.00   0.00   0.00   0.00   0.00      0      0      0       0       1
 1987 217    33    30    4.0      1   0.05     19     14      0     30     33      0    0.0  0.000      0      0  0.000  0.000  0.000  0.000   4.11   0.00   0.00      0      0    251.8   0.00   0.00   0.22   0.19   0.20   0.07   0.00   0.00   0.00   0.00   0.00   0.00   0.00      0      0      0       0       1
 1987 218    34    31    4.0      1   0.05     19     14      0     30     33      0    0.0  0.000      0      0  0.000  0.000  0.000  0.000   4.27   0.00   0.00      0      0    251.9   0.00   0.00   0.22   0.18   0.19   0.07   0.00   0.00   0.00   0.00   0.00   0.00   0.00      0      0      0       0       1
 1987 219    35    32    5.0      1   0.05     20     14      0     32     34      0    0.0  0.000      0      0  0.000  0.000  0.000  0.500   4.19   0.00   0.00      0      0    252.3   0.00   0.00   0.22   0.17   0.19   0.08   0.00   0.00   0.00   0.00   0.00   0.00   0.00      0      0      0       0       1
 1987 220    36    33    5.0      1   0.05     22     14      0     33     36      0    0.0  0.000      0      0  0.000  0.000  0.000  0.302   4.11   0.00   0.00      0      0    252.7   0.00   0.00   0.23   0.16   0.20   0.08   0.00   0.00   0.00   0.00   0.00   0.00   0.00      0      0      0       0       1
 1987 221    37    34    5.0      1   0.06     24     14      0     37     38      0    0.0  0.000      0      0  0.000  0.000  0.000  0.108   3.96   0.00   0.00      0      0    252.5   0.00   0.00   0.23   0.16   0.22   0.10   0.00   0.00   0.00   0.00   0.00   0.00   0.00      0      0      0       0       1
 1987 222    38    35    5.0      1   0.07     28     14      0     38     42      0    0.0  0.000      0      0  0.000  0.000  0.000  0.057   3.87   0.00   0.00      0      0    251.4   0.00   0.00   0.24   0.16   0.22   0.11   0.00   0.00   0.00   0.00   0.00   0.00   0.00      0      0      0       0       2
 1987 223    39    36    5.0      1   0.09     35     14      0     41     49      0    0.0  0.000      0      0  0.000  0.000  0.000  0.031   3.71   0.00   0.00      0      0    248.6   0.00   0.00   0.25   0.16   0.24   0.13   0.00   0.00   0.00   0.00   0.00   0.00   0.00      0      0      0       0       2
 1987 224    40    37    5.0      1   0.10     40     14      0     42     54      0    0.0  0.000      0      0  0.000  0.000  0.000  0.034   3.80   0.00   0.00      0      0    245.8   0.00   0.00   0.25   0.16   0.25   0.13   0.00   0.00   0.00   0.00   0.00   0.00   0.00      0      0      0       0       2
 1987 225    41    38    6.0      1   0.11     45     14      0     42     59      0    0.0  0.000      0      0  0.000  0.000  0.000  0.057   3.87   0.00   0.00      0      0    243.2   0.00   0.00   0.26   0.16   0.25   0.14   0.00   0.00   0.00   0.00   0.00   0.00   0.00      0      0      0       0       2
 1987 226    42    39    6.0      1   0.12     48     14      0     47     62      0    0.0  0.000      0      0  0.000  0.000  0.000  0.547   3.98   0.00   0.00      0      0    241.5   0.00   0.00   0.27   0.15   0.26   0.17   0.00   0.00   0.00   0.00   0.00   0.00   0.00      0      0      0       0       2
 1987 227    43    40    6.0      1   0.12     51     14      0     52     65      0    0.0  0.000      0      0  0.000  0.000  0.000  0.575   4.03   0.00   0.00      0      0    240.3   0.00   0.00   0.27   0.14   0.27   0.20   0.00   0.00   0.00   0.00   0.00   0.00   0.00      0      0      0       0       3
 1987 228    44    41    6.0      1   0.13     52     14      0     59     66      0    0.0  0.000      0      0  0.000  0.000  0.000  0.374   4.09   0.00   0.00      0      0    239.6   0.00   0.00   0.28   0.14   0.31   0.25   0.00   0.00   0.00   0.00   0.00   0.00   0.00      0      0      0       0       3
 1987 229    45    42    6.0      1   0.12     52     14      0     60     66      0    0.0  0.000      0      0  0.000  0.000  0.000  0.143   4.09   0.00   0.00      0      0    237.7   0.00   0.00   0.28   0.14   0.30   0.25   0.00   0.00   0.00   0.00   0.00   0.00   0.00      0      0      0       0       3
 1987 230    46    43    6.0      1   0.12     53     14      0     61     67      0    0.0  0.000      0      0  0.000  0.000  0.012  0.078   4.07   0.00   0.00      0      0    237.1   0.00   0.00   0.28   0.13   0.30   0.25   0.00   0.00   0.00   0.00   0.00   0.00   0.00      0      0      0       0       3
 1987 231    47    44    6.0      1   0.12     53     14      0     64     67      0    0.0  0.000      0      0  0.000  0.000  0.011  0.038   4.16   0.00   0.00      0      0    223.4   0.00   0.00   0.28   0.14   0.32   0.28   0.00   0.00   0.00   0.00   0.00   0.00   0.00      0      0      0       0       3
 1987 232    48    45    6.0      1   0.12     54     14      0     66     68      0    0.0  0.000      0      0  0.000  0.000  0.000  0.001   4.12   0.00   0.00      0      0    217.5   0.00   0.00   0.28   0.14   0.33   0.30   0.00   0.00   0.00   0.00   0.00   0.00   0.00      0      0      0       0       3
 1987 233    49    46    6.0      1   0.12     57     14      0     68     71      0    0.0  0.000      0      0  0.000  0.000  0.002  0.000   3.95   0.00   0.00      0      0    217.1   0.00   0.00   0.28   0.14   0.34   0.31   0.00   0.00   0.00   0.00   0.00   0.00   0.00      0      0      0       0       3
 1987 234    50    47    6.0      1   0.13     62     14      0     81     76      0    0.0  0.000      0      0  0.000  0.000  0.005  0.000   3.87   0.00   0.00      0      0    215.0   0.00   0.00   0.28   0.16   0.42   0.43   0.00   0.00   0.00   0.00   0.00   0.00   0.00      0      0      0       0       4
 1987 235    51    48    6.0      1   0.14     68     14      0     94     82      0    0.0  0.000      0      0  0.000  0.000  0.000  0.000   3.85   0.00   0.00      0      0    211.4   0.00   0.00   0.29   0.19   0.49   0.55   0.00   0.00   0.00   0.00   0.00   0.00   0.00      0      0      0       0       4
 1987 236    52    49    6.0      1   0.16     76     14      0    104     90      0    0.0  0.000      0      0  0.000  0.000  0.000  0.000   3.78   0.00   0.00      0      0    210.3   0.00   0.00   0.30   0.21   0.54   0.63   0.00   0.00   0.00   0.00   0.00   0.00   0.00      0      0      0       0       4
 1987 237    53    50    7.0      1   0.19     90     14      0    116    104      0    0.0  0.000      0      0  0.000  0.000  0.000  0.000   3.55   0.00   0.00      0      0    207.8   0.00   0.00   0.31   0.23   0.61   0.74   0.00   0.00   0.00   0.00   0.00   0.00   0.00      0      0      0       0       5
 1987 238    54    51    7.0      1   0.21    101     14      0    135    115      0    0.0  0.000      0      0  0.000  0.000  0.000  0.000   3.70   0.00   0.00      0      0    205.8   0.00   0.00   0.31   0.28   0.71   0.90   0.00   0.00   0.00   0.00   0.00   0.00   0.00      0      0      0       0       6
 1987 239    55    52    7.0      1   0.24    116     14      0    149    130      0    0.0  0.000      0      0  0.000  0.000  0.000  0.000   3.59   0.00   0.00      0      0    203.0   0.00   0.00   0.32   0.31   0.78   1.02   0.01   0.00   0.00   0.00   0.00   0.00   0.00      0      0      0       0       6
 1987 240    56    53    7.0      1   0.26    129     14      0    151    143      0    0.0  0.000      0      0  0.000  0.000  0.000  0.000   3.71   0.00   0.00      0      0    200.8   0.00   0.00   0.32   0.29   0.75   0.98   0.01   0.00   0.00   0.00   0.00   0.00   0.00      0      0      0       0       7
 1987 241    57    54    7.0      1   0.27    134     14      0    154    148      0    0.0  0.000      0      0  0.000  0.000  0.000  0.000   3.91   0.00   0.00      0      0    199.9   0.00   0.00   0.32   0.28   0.71   0.95   0.01   0.00   0.00   0.00   0.00   0.00   0.00      0      0      0       0       8
 1987 242    58    55    7.0      1   0.27    136     14      0    171    150      0    0.0  0.000      0      0  0.000  0.000  0.000  0.374   3.99   0.00   0.00      0      0    195.0   0.00   0.00   0.32   0.27   0.75   1.09   0.02   0.00   0.00   0.00   0.00   0.00   0.00      0      0      0       0       8
 1987 243    59    56    7.0      1   0.24    140     14      0    189    154      0    0.0  0.000      0      0  0.000  0.000  0.000  0.145   3.95   0.00   0.00      0      0    174.6   0.00   0.00   0.33   0.26   0.81   1.24   0.04   0.00   0.00   0.00   0.00   0.00   0.00      0      0      0       0       9
 1987 244    60    57    8.0      1   0.26    148     14      0    203    162      0    0.0  0.000      0      0  0.000  0.000  0.000  0.049   3.76   0.00   0.00      0      0    174.5   0.00   0.00   0.33   0.26   0.85   1.36   0.05   0.00   0.00   0.00   0.00   0.00   0.00      0      0      0       0       9
 1987 245    61    58    8.0      1   0.27    156     14      0    205    170      0    0.0  0.000      0      0  0.000  0.000  0.010  0.000   3.84   0.00   0.00      0      0    174.2   0.00   0.00   0.34   0.26   0.86   1.38   0.05   0.00   0.00   0.00   0.00   0.00   0.00      0      0      0       0      10
 1987 246    62    59    8.0      1   0.29    165     14      0    232    179      0    0.0  0.000      0      0  0.000  0.000  0.000  0.000   3.80   0.00   0.00      0      0    174.0   0.00   0.00   0.34   0.27   0.96   1.64   0.09   0.00   0.00   0.00   0.00   0.00   0.00      0      0      0       0      11
 1987 247    63    60    8.0      1   0.27    171     14      0    254    185      0    0.0  0.000      0      0  0.000  0.000  0.000  0.000   3.89   0.00   0.00      0      0    158.2   0.00   0.00   0.35   0.28   1.05   1.84   0.12   0.00   0.00   0.00   0.00   0.00   0.00      0      0      0       0      13
 1987 248    64    61    8.0      1   0.24    175     14      0    265    189      0    0.0  0.000      0      0  0.000  0.000  0.000  0.000   3.91   0.00   0.00      0      0    134.3   0.00   0.00   0.35   0.29   1.09   1.94   0.13   0.00   0.00   0.00   0.00   0.00   0.00      0      0      0       0      14
 1987 249    65    62    8.0      1   0.21    180     14      0    281    194      0    0.0  0.000      0      0  0.000  0.000  0.000  0.000   3.89   0.00   0.00      0      0    117.7   0.00   0.00   0.35   0.30   1.15   2.08   0.15   0.00   0.00   0.00   0.00   0.00   0.00      0      0      0       0      15
 1987 250    66    63    8.0      1   0.22    189     14      0    298    203      0    0.0  0.000      0      0  0.000  0.000  0.000  0.000   3.81   0.00   0.00      0      0    115.3   0.00   0.00   0.36   0.32   1.21   2.22   0.18   0.00   0.00   0.00   0.00   0.00   0.00      0      0      0       0      17
 1987 251    67    64    8.0      1   0.25    208     14      0    303    222      0    0.0  0.000      0      0  0.000  0.000  0.000  0.000   3.63   0.00   0.00      0      0    119.7   0.00   0.00   0.37   0.32   1.23   2.27   0.19   0.00   0.00   0.00   0.00   0.00   0.00      0      0      0       0      18
 1987 252    68    65    8.0      1   0.29    233     14      0    305    247      0    0.0  0.000      0      0  0.000  0.000  0.000  0.000   3.56   0.00   0.00      0      0    123.9   0.00   0.00   0.38   0.32   1.23   2.29   0.20   0.00   0.00   0.00   0.00   0.00   0.00      0      0      0       0      20
 1987 253    69    66    9.0      1   0.31    246     14      0    324    260      0    0.0  0.000      0      0  0.000  0.000  0.000  0.000   3.75   0.00   0.00      0      0    125.7   0.00   0.00   0.38   0.35   1.30   2.44   0.24   0.00   0.00   0.00   0.00   0.00   0.00      0      0      0       0      21
 1987 254    70    67    9.0      1   0.32    258     14      0    355    272      0    0.0  0.000      0      0  0.000  0.000  0.000  0.000   3.74   0.00   0.00      0      0    123.5   0.00   0.00   0.39   0.40   1.41   2.69   0.31   0.00   0.00   0.00   0.00   0.00   0.00      0      0      0       0      23
 1987 255    71    68    9.0      1   0.31    271     14      0    388    285      0    0.0  0.000      0      0  0.000  0.000  0.000  0.000   3.76   0.00   0.00      0      0    115.8   0.00   0.00   0.40   0.45   1.53   2.94   0.40   0.00   0.00   0.00   0.00   0.00   0.00      0      0      0       0      24
 1987 256    72    69    9.0      1   0.36    300     14      0    418    314      0    0.0  0.000      0      0  0.000  0.000  0.000  0.000   3.54   0.00   0.00      0      0    119.4   0.00   0.00   0.41   0.49   1.63   3.16   0.48   0.00   0.00   0.00   0.00   0.00   0.00      0      0      0       0      26
 1987 257    73    70    9.0      2   0.41    309     14      0    427    323      0    0.0  0.000      0      0  0.000  0.000  0.000  0.000   3.77   0.00   0.00      0      0    133.1   0.00   0.00   0.42   0.51   1.66   3.23   0.51   0.00   0.00   0.00   0.00   0.00   0.00      0      0      0       0      28
 1987 258    74    71    9.0      2   0.44    326     14      0    446    340      0    0.0  0.000      0      0  0.000  0.000  0.002  0.000   3.70   0.00   0.00      0      0    134.4   0.00   0.00   0.43   0.48   1.62   3.19   0.54   0.00   0.00   0.00   0.00   0.00   0.00      0      0      0       0      31
 1987 259    75    72    9.0      2   0.41    331     14      0    464    345      0    0.0  0.000      0      0  0.000  0.000  0.000  0.000   3.77   0.00   0.00      0      0    123.4   0.00   0.00   0.43   0.47   1.62   3.24   0.60   0.00   0.00   0.00   0.00   0.00   0.00      0      0      0       0      33
 1987 260    76    73    9.0      2   0.43    344     14      0    490    358      0    0.0  0.000      0      0  0.000  0.000  0.000  0.114   3.83   0.00   0.00      0      0    124.5   0.00   0.00   0.43   0.46   1.66   3.38   0.68   0.00   0.00   0.00   0.00   0.00   0.00      0      0      0       0      35
 1987 261    77    74   10.0      3   0.45    360     14      0    514    374      0    0.0  0.000      0      0  0.000  0.000  0.022  0.017   3.71   0.00   0.00      0      0    124.1   0.00   0.00   0.44   0.46   1.72   3.56   0.77   0.00   0.00   0.00   0.00   0.00   0.00      0      0      0       0      38
 1987 262    78    75   10.0      3   0.44    368     14      0    545    382      0    0.0  0.000      0      0  0.000  0.000  0.022  0.000   3.66   0.00   0.00      0      0    118.7   0.00   0.00   0.44   0.46   1.80   3.79   0.89   0.00   0.00   0.00   0.00   0.00   0.00      0      0      0       0      40
 1987 263    79    76   10.0      3   0.36    381     14      0    582    395      0    0.0  0.000      0      0  0.000  0.000  0.022  0.000   3.63   0.00   0.00      0      0     95.5   0.00   0.00   0.44   0.47   1.90   4.00   1.04   0.00   0.00   0.00   0.00   0.00   0.00      0      0      0       0      43
 1987 264    80    77   10.0      3   0.36    387     14      0    594    401      0    0.0  0.000      0      0  0.000  0.000  0.022  0.000   3.58   0.00   0.00      0      0     93.4   0.00   0.00   0.45   0.47   1.93   4.00   1.09   0.00   0.00   0.00   0.00   0.00   0.00      0      0      0       0      43
 1987 265    81    78   10.0      3   0.29    395     14      0    612    409      0    0.0  0.000      0      0  0.000  0.000  0.022  0.000   3.63   0.00   0.00      0      0     72.8   0.00   0.00   0.45   0.47   1.98   4.00   1.17   0.00   0.00   0.00   0.00   0.00   0.00      0      0      0       0      46
 1987 266    82    79   10.0      3   0.31    413     14      0    630    427      0    0.0  0.000      0      0  0.000  0.000  0.022  0.000   3.59   0.00   0.00      0      0     75.9   0.00   0.00   0.45   0.48   2.03   4.00   1.25   0.00   0.00   0.00   0.00   0.00   0.00      0      0      0       0      49
 1987 267    83    80   10.0      3   0.35    439     14      0    669    454      0    0.0  0.000      0      0  0.000  0.000  0.022  0.000   3.54   0.00   0.00      0      0     78.7   0.00   0.00   0.46   0.51   2.12   4.00   1.39   0.01   0.00   0.00   0.00   0.00   0.00      0      0      0       0      52
 1987 268    84    81   10.0      3   0.40    479     15      0    698    494      0    0.0  0.000      0      0  0.000  0.000  0.022  0.000   3.51   0.00   0.00      0      0     84.2   0.00   0.00   0.47   0.53   2.19   4.00   1.50   0.03   0.00   0.00   0.00   0.00   0.00      0      0      0       0      55
 1987 269    85    82   11.0      3   0.49    540     16      0    714    556      0    0.0  0.000      0      0  0.000  0.000  0.022  0.000   3.48   0.00   0.00      0      0     90.6   0.00   0.00   0.49   0.54   2.23   4.00   1.57   0.05   0.00   0.00   0.00   0.00   0.00      0      0      0       0      59
 1987 270    86    83   11.0      3   0.54    580     17      0    751    598      0    0.0  0.000      0      0  0.000  0.000  0.022  0.000   3.45   0.00   0.00      0      0     93.8   0.00   0.00   0.50   0.56   2.31   4.00   1.71   0.10   0.00   0.00   0.00   0.00   0.00      0      0      0       0      63
 1987 271    87    84   11.0      3   0.59    613     19      0    812    631      0    0.0  0.000      0      0  0.000  0.000  0.022  0.000   3.43   0.00   0.00      0      0     96.0   0.00   0.00   0.50   0.60   2.45   4.00   1.95   0.21   0.00   0.00   0.00   0.00   0.00      0      0      0       0      66
 1987 272    88    85   11.0      3   0.65    660     21      0    861    681      0    0.0  0.000      0      0  0.000  0.000  0.022  0.000   3.40   0.00   0.00      0      0     98.6   0.00   0.00   0.51   0.63   2.56   4.00   2.15   0.31   0.00   0.00   0.00   0.00   0.00      0      0      0       0      70
 1987 273    89    86   11.0      3   0.72    709     24      0    860    733      0    0.0  0.000      0      0  0.000  0.000  0.022  0.000   3.38   0.00   0.00      0      0    100.9   0.00   0.00   0.52   0.62   2.56   4.00   2.15   0.31   0.00   0.00   0.00   0.00   0.00      0      0      0       0      75
 1987 274    90    87   12.0      3   0.77    751     27      0    940    779      0    0.0  0.000      0      0  0.000  0.000  0.022  0.000   3.36   0.00   0.00      0      0    102.5   0.00   0.00   0.53   0.63   2.76   4.00   2.46   0.51   0.00   0.00   0.00   0.00   0.00      0      0      0       0      79
 1987 275    91    88   12.0      3   0.81    781     30      0   1002    811      0    0.0  0.000      0      0  0.000  0.000  0.022  0.000   3.38   0.00   0.00      0      0    103.4   0.00   0.00   0.54   0.64   2.90   4.00   2.71   0.69   0.00   0.00   0.00   0.00   0.00      0      0      0       0      84
 1987 276    92    89   12.0      3   0.86    821     33      0   1054    854      0    0.0  0.000      0      0  0.000  0.000  0.022  0.000   3.33   0.00   0.00      0      0    104.3   0.00   0.00   0.54   0.65   3.01   4.00   2.92   0.86   0.00   0.00   0.00   0.00   0.00      0      0      0       0      89
 1987 277    93    90   12.0      3   0.94    886     41      0   1136    926      0    0.0  0.000      0      0  0.000  0.000  0.022  0.000   3.31   0.00   0.00      0      0    105.9   0.00   0.00   0.55   0.66   3.18   4.00   3.24   1.14   0.00   0.00   0.00   0.00   0.00      0      0      0       0      94
 1987 278    94    91   12.0      3   1.03    960     51      0   1221   1011      0    0.0  0.000      0      0  0.000  0.000  0.022  0.000   3.28   0.00   0.00      0      0    107.3   0.00   0.00   0.56   0.67   3.34   4.00   3.59   1.48   0.00   0.00   0.00   0.00   0.00      0      0      0       0     100
 1987 279    95    92   12.0      3   1.12   1033     62      0   1267   1095      0    0.0  0.000      0      0  0.000  0.000  0.022  0.000   3.25   0.00   0.00      0      0    108.3   0.00   0.00   0.58   0.68   3.40   4.00   3.79   1.71   0.00   0.00   0.00   0.00   0.00      0      0      0       0     106
 1987 280    96    93   13.0      3   1.21   1107     76      0   1267   1183      0    0.0  0.000      0      0  0.000  0.000  0.022  0.000   3.22   0.00   0.00      0      0    109.0   0.00   0.00   0.59   0.68   3.39   4.00   3.79   1.73   0.00   0.00   0.00   0.00   0.00      0      0      0       0     112
 1987 281    97    94   13.0      3   1.28   1172     90      0   1318   1262      0    0.0  0.000      0      0  0.000  0.000  0.022  0.000   3.20   0.00   0.00      0      0    109.5   0.00   0.00   0.60   0.68   3.44   4.00   4.00   2.03   0.00   0.00   0.00   0.00   0.00      0      0      0       0     118
 1987 282    98    95   13.0      3   1.35   1230    103      0   1433   1334      0    0.0  0.000      0      0  0.000  0.000  0.022  0.000   3.18   0.00   0.00      0      0    109.7   0.00   0.00   0.61   0.71   3.51   4.00   4.00   2.77   0.00   0.00   0.00   0.00   0.00      0      0      0       0     125
 1987 283    99    96   13.0      3   1.48   1343    135      0   1494   1478      0    0.0  0.000      0      0  0.000  0.000  0.022  0.000   3.14   0.00   0.00      0      0    110.2   0.00   0.00   0.62   0.72   3.49   4.00   4.00   3.17   0.03   0.00   0.00   0.00   0.00      0      0      0       0     132
 1987 284   100    97   14.0      3   1.59   1444    167      0   1534   1611      0    0.0  0.000      0      0  0.000  0.000  0.022  0.000   3.10   0.00   0.00      0      0    110.4   0.00   0.00   0.63   0.73   3.46   3.97   4.00   3.43   0.07   0.00   0.00   0.00   0.00      0      0      0       0     140
 1987 285   101    98   14.0      3   1.68   1522    195      0   1648   1717      0    0.0  0.000      0      0  0.000  0.000  0.022  0.001   3.07   0.00   0.00      0      0    110.4   0.00   0.00   0.64   0.77   3.47   3.97   4.00   4.00   0.22   0.00   0.00   0.00   0.00      0      0      0       0     147
 1987 286   102    99   14.0      3   1.73   1565    212      0   1762   1777      0    0.0  0.000      0      0  0.000  0.000  0.022  0.011   3.07   0.00   0.00      0      0    110.2   0.00   0.00   0.65   0.81   3.49   3.98   4.00   4.00   0.41   0.00   0.00   0.00   0.00      0      0      0       0     156
 1987 287   103   100   14.0      3   1.76   1605    228      0   1816   1834      0    0.0  0.000      0      0  0.000  0.000  0.022  0.002   3.06   0.00   0.00      0      0    109.8   0.00   0.00   0.66   0.83   3.49   3.98   4.00   4.00   0.51   0.00   0.00   0.00   0.00      0      0      0       0     164
 1987 288   104   101   14.0      3   1.82   1664    254      0   1829   1918      0    0.0  0.000      0      0  0.000  0.000  0.022  0.001   3.03   0.00   0.00      0      0    109.6   0.00   0.00   0.66   0.84   3.47   3.96   4.00   4.00   0.55   0.00   0.00   0.00   0.00      0      0      0       0     173
 1987 289   105   102   15.0      3   1.89   1725    282      0   1920   2007      0    0.0  0.000      0      0  0.000  0.000  0.022  0.000   3.01   0.00   0.00      0      0    109.5   0.00   0.00   0.67   0.88   3.50   3.98   4.00   4.00   0.75   0.00   0.00   0.00   0.00      0      0      0       0     183
 1987 290   106   103   15.0      3   1.95   1783    311      0   2084   2094      0    0.0  0.000      0      0  0.000  0.000  0.022  0.004   2.99   0.00   0.00      0      0    109.2   0.00   0.00   0.68   0.95   3.57   4.00   4.00   4.00   1.14   0.00   0.00   0.00   0.00      0      0      0       0     192
 1987 291   107   104   15.0      3   2.01   1842    342      0   2257   2185      0    0.0  0.000      0      0  0.000  0.000  0.022  0.000   2.97   0.00   0.00      0      0    109.0   0.00   0.00   0.69   1.05   3.64   4.00   4.00   4.00   1.61   0.00   0.00   0.00   0.00      0      0      0       0     203
 1987 292   108   105   15.0      3   2.08   1911    381      0   2375   2292      0    0.0  0.000      0      0  0.000  0.000  0.022  0.000   2.95   0.00   0.00      0      0    108.8   0.00   0.00   0.69   1.12   3.70   4.00   4.00   4.00   1.97   0.00   0.00   0.00   0.00      0      0      0       0     214
 1987 293   109   106   15.0      3   2.16   1989    429      0   2528   2418      0    0.0  0.000      0      0  0.000  0.000  0.022  0.000   2.91   0.00   0.00      0      0    108.5   0.00   0.00   0.70   1.22   3.79   4.00   4.00   4.00   2.48   0.00   0.00   0.00   0.00      0      0      0       0     226
 1987 294   110   107   16.0      3   2.26   2087    495      0   2639   2581      0    0.0  0.000      0      0  0.000  0.000  0.022  0.000   2.86   0.00   0.00      0      0    108.2   0.00   0.00   0.72   1.30   3.86   4.00   4.00   4.00   2.91   0.00   0.00   0.00   0.00      0      0      0       0     238
 1987 295   111   108   16.0      3   2.35   2177    561      0   2731   2738      0    0.0  0.000      0      0  0.000  0.000  0.022  0.000   2.79   0.00   0.00      0      0    107.9   0.00   0.00   0.73   1.40   3.94   4.00   4.00   4.00   3.32   0.00   0.00   0.00   0.00      0      0      0       0     252
 1987 296   112   109   16.0      3   2.48   2302    661      0   2817   2963      0    0.0  0.000      0      0  0.000  0.000  0.022  0.000   2.66   0.00   0.00      0      0    107.6   0.00   0.00   0.74   1.50   4.00   4.00   4.00   4.00   3.73   0.00   0.00   0.00   0.00      0      0      0       0     265
 1987 297   113   110   16.0      3   2.60   2425    771      0   2864   3197      0    0.0  0.000      0      0  0.000  0.000  0.022  0.000   2.54   0.00   0.00      0      0    107.2   0.00   0.00   0.76   1.57   4.00   4.00   4.00   4.00   3.98   0.00   0.00   0.00   0.00      0      0      0       0     279
 1987 298   114   111   17.0      3   2.69   2520    863      0   2860   3383      0    0.0  0.000      0      0  0.000  0.000  0.023  0.000   2.46   0.00   0.00      0      0    106.8   0.00   0.00   0.77   1.58   3.99   3.99   3.99   3.98   4.00   0.00   0.00   0.00   0.00      0      0      0       0     294
 1987 299   115   112   17.0      3   2.77   2608    932      0   2854   3539      0    0.0  0.000      0      0  0.000  0.000  0.027  0.000   2.40   0.00   0.00      0      0    106.3   0.00   0.00   0.78   1.58   3.99   3.99   3.97   3.97   4.00   0.00   0.00   0.00   0.00      0      0      0       0     308
 1987 300   116   113   17.0      3   2.83   2677   1010      0   2848   3687      0    0.0  0.000      0      0  0.000  0.000  0.030  0.000   2.34   0.00   0.00      0      0    105.9   0.00   0.00   0.80   1.59   3.98   3.98   3.96   3.96   4.00   0.00   0.00   0.00   0.00      0      0      0       0     322
 1987 301   117   114   18.0      3   2.94   2792   1172      0   2864   3965      0    0.0  0.000      0      0  0.000  0.000  0.032  0.000   2.21   0.00   0.00      0      0    105.3   0.00   0.00   0.81   1.65   4.00   4.00   3.97   3.96   4.00   0.00   0.00   0.00   0.00      0      0      0       0     336
 1987 302   118   115   18.0      3   3.04   2899   1347      0   2968   4246      0    0.0  0.000      0      0  0.000  0.000  0.035  0.000   2.09   0.00   0.00      0      0    104.7   0.00   0.00   0.82   1.95   4.00   4.00   4.00   4.00   4.00   0.00   0.00   0.00   0.00      0      0      0       0     351
 1987 303   119   116   18.0      3   3.13   3011   1560      0   3042   4570      0    0.0  0.000      0      0  0.000  0.000  0.042  0.000   1.96   0.00   0.00      0      0    104.0   0.00   0.00   0.84   2.21   4.00   4.00   4.00   4.00   4.00   0.00   0.00   0.00   0.00      0      0      0       0     366
 1987 304   120   117   19.0      3   3.21   3111   1773      0   3125   4884      0    0.0  0.000      0      0  0.000  0.000  0.049  0.000   1.85   0.00   0.00      0      0    103.3   0.00   0.00   0.85   2.58   4.00   4.00   4.00   4.00   4.00   0.00   0.00   0.00   0.00      0      0      0       0     381
 1987 305   121   118   19.0      3   3.26   3186   1944      0   3123   5130      0    0.0  0.000      0      0  0.000  0.000  0.059  0.000   1.78   0.00   0.00      0      0    102.4   0.00   0.00   0.87   2.62   4.00   4.00   4.00   4.00   3.99   0.00   0.00   0.00   0.00      0      0      0       0     396
 1987 306   122   119   19.0      3   3.30   3247   2096      0   3120   5343      0    0.0  0.000      0      0  0.000  0.000  0.067  0.000   1.73   0.00   0.00      0      0    101.5   0.00   0.00   0.88   2.65   4.00   4.00   4.00   4.00   3.99   0.00   0.00   0.00   0.00      0      0      0       0     412
 1987 307   123   120   20.0      3   3.33   3308   2255      0   3116   5562      0    0.0  0.000      0      0  0.000  0.000  0.073  0.000   1.67   0.00   0.00      0      0    100.6   0.00   0.00   0.90   2.68   4.00   4.00   4.00   3.99   3.98   0.00   0.00   0.00   0.00      0      0      0       0     428
 1987 308   124   121   20.0      3   3.33   3343   2354      0   3108   5698      0    0.0  0.000      0      0  0.000  0.000  0.078  0.000   1.64   0.00   0.00      0      0     99.6   0.00   0.00   0.91   2.70   4.00   4.00   3.99   3.98   3.97   0.00   0.00   0.00   0.00      0      0      0       0     443
 1987 309   125   122   20.0      3   3.33   3379   2457      0   3100   5836      0    0.0  0.000      0      0  0.000  0.000  0.083  0.000   1.61   0.00   0.00      0      0     98.5   0.00   0.00   0.92   2.70   4.00   4.00   3.98   3.97   3.96   0.03   0.00   0.00   0.00      0      0      0       0     459
 1987 310   126   123   21.0      3   3.34   3425   2594      0   3098   6019      0    0.0  0.000      0      0  0.000  0.000  0.084  0.000   1.58   0.00   0.00      0      0     97.5   0.00   0.00   0.93   2.72   4.00   4.00   3.97   3.96   3.94   0.09   0.00   0.00   0.00      0      0      0       0     474
 1987 311   127   124   21.0      3   3.34   3468   2723      0   3262   6190      0    0.0  0.000      0      0  0.000  0.000  0.086  0.002   1.55   0.00   0.00      0      0     96.4   0.00   0.00   0.94   3.06   4.00   4.00   4.00   4.00   4.00   1.03   0.00   0.00   0.00      0      0      0       0     490
 1987 312   128   125   21.0      3   3.35   3508   2843      0   3382   6351      0    0.0  0.000      0      0  0.000  0.000  0.089  0.004   1.55   0.00   0.00      0      0     95.4   0.00   0.00   0.95   3.29   4.00   4.00   4.00   4.00   4.00   1.78   0.00   0.00   0.00      0      0      0       0     506
 1987 313   129   126   21.0      3   3.33   3534   2920      0   3577   6454      0    0.0  0.000      0      0  0.000  0.000  0.089  0.000   1.55   0.00   0.00      0      0     94.3   0.00   0.00   0.96   3.66   4.00   4.00   4.00   4.00   4.00   2.96   0.00   0.00   0.00      0      0      0       0     523
 1987 314   130   127   21.0      3   3.33   3568   3022      0   3751   6590      0    0.0  0.000      0      0  0.000  0.000  0.090  0.000   1.54   0.00   0.00      0      0     93.3   0.00   0.00   0.96   3.99   4.00   4.00   4.00   4.00   4.00   4.00   0.00   0.00   0.00      0      0      0       0     541
 1987 315   131   128   21.0      3   3.34   3616   3166      0   3891   6782      0    0.0  0.000      0      0  0.000  0.000  0.088  0.000   1.51   0.00   0.00      0      0     92.3   0.00   0.00   0.97   4.00   4.00   4.00   4.00   4.00   4.00   4.00   0.00   0.00   0.00      0      0      0       0     560
 1987 316   132   129   21.0      3   3.36   3671   3328      0   3962   6999      0    0.0  0.000      0      0  0.000  0.000  0.087  0.000   1.49   0.00   0.00      0      0     91.4   0.00   0.00   0.99   4.00   4.00   4.00   4.00   4.00   4.00   4.00   0.00   0.00   0.00      0      0      0       0     579
 1987 317   133   130   21.0      3   3.38   3734   3511      0   4041   7245      0    0.0  0.000      0      0  0.000  0.000  0.089  0.000   1.45   0.00   0.00      0      0     90.5   0.00   0.00   1.00   4.00   4.00   4.00   4.00   4.00   4.00   4.00   0.00   0.00   0.00      0      0      0       0     599
 1987 318   134   131   21.0      3   3.40   3799   3701      0   4108   7500      0    0.0  0.000      0      0  0.000  0.000  0.091  0.000   1.42   0.00   0.00      0      0     89.5   0.00   0.00   1.01   4.00   4.00   4.00   4.00   4.00   4.00   4.00   0.00   0.00   0.00      0      0      0       0     619
 1987 319   135   132   21.0      4   3.36   3758   3145      0   4203   7676      0    0.0  0.000    773      0  0.000  0.000  0.095  0.000   1.55   0.00   0.10      0    773     89.4   0.00   0.00   1.03   4.00   4.00   4.00   4.00   4.00   4.00   4.00   0.00   0.00   0.00      0      0      0       0     640
 1987 320   136   133   21.0      4   3.32   3716   3191      0   4367   7796      0    0.0  0.000    888      0  0.000  0.000  0.098  0.197   1.56   0.00   0.11      0    888     89.3   0.00   0.00   1.04   4.00   4.00   4.00   4.00   4.00   4.00   4.00   0.00   0.00   0.00      0      0      0       0     661
 1987 321   137   134   21.0      4   3.29   3672   3255      0   4510   7974      0    0.0  0.000   1047      0  0.000  0.000  0.071  0.070   1.57   0.00   0.13      0   1047     89.6   0.00   0.00   1.05   4.00   4.00   4.00   4.00   4.00   4.00   4.00   0.00   0.00   0.00      0      0      0       0     682
 1987 322   138   135   21.0      4   3.26   3624   3320      0   4497   8156      0    0.0  0.000   1211      0  0.000  0.000  0.066  0.035   1.58   0.00   0.15      0   1211     90.0   0.00   0.00   1.06   4.00   4.00   4.00   3.99   3.99   3.99   4.00   0.00   0.00   0.00      0      0      0       0     705
 1987 323   139   136   21.0      4   3.24   3575   3385      0   4493   8332      0    0.0  0.000   1372      0  0.000  0.000  0.062  0.135   1.58   0.00   0.16      0   1372     90.6   0.00   0.00   1.07   3.80   3.80   3.80   3.76   3.76   3.76   3.81   0.00   0.00   0.00      0      0      0       0     728
 1987 324   140   137   21.0      4   3.21   3524   3436      0   4483   8461      0    0.0  0.000   1501      0  0.000  0.000  0.059  0.090   1.59   0.00   0.18      0   1501     91.2   0.00   0.00   1.08   3.71   3.71   3.71   3.65   3.65   3.64   3.71   0.00   0.00   0.00      0      0      0       0     750
 1987 325   141   138   21.0      4   3.19   3471   3473      0   4680   8535      0    0.0  0.000   1592      0  0.000  0.000  0.057  0.256   1.60   0.00   0.19      0   1592     91.9   0.00   0.00   1.09   4.00   4.00   4.00   3.86   3.83   3.78   3.93   0.09   0.00   0.00      0      0      0       0     772
 1987 326   142   139   21.0      4   3.17   3416   3512      0   4870   8618      0    0.0  0.000   1690      0  0.000  0.000  0.055  0.076   1.61   0.00   0.20      0   1690     92.8   0.00   0.00   1.09   4.00   4.00   4.00   4.00   4.00   3.97   4.00   0.23   0.00   0.00      0      0      0       0     796
 1987 327   143   140   21.0      4   3.15   3360   3557      0   4880   8719      0    0.0  0.000   1802      0  0.000  0.000  0.051  0.039   1.62   0.00   0.21      0   1802     93.7   0.00   0.00   1.10   4.00   4.00   4.00   4.00   4.00   3.99   4.00   0.26   0.00   0.00      0      0      0       0     820
 1987 328   144   141   21.0      4   3.13   3302   3622      0   4876   8888      0    0.0  0.000   1965      0  0.000  0.000  0.047  0.016   1.63   0.00   0.22      0   1965     94.8   0.00   0.00   1.11   4.00   4.00   4.00   4.00   4.00   3.99   3.99   0.28   0.00   0.00      0      0      0       0     845
 1987 329   145   142   21.0      4   3.11   3241   3692      0   4898   9075      0    0.0  0.000   2141      0  0.000  0.000  0.043  0.007   1.64   0.00   0.24      0   2141     96.0   0.00   0.00   1.12   4.00   4.00   4.00   4.00   4.00   4.00   4.00   0.34   0.00   0.00      0      0      0       0     869
 1987 330   146   143   21.0      4   3.10   3179   3756      0   4920   9234      0    0.0  0.000   2300      0  0.000  0.000  0.040  0.005   1.65   0.00   0.25      0   2300     97.5   0.00   0.00   1.12   4.00   4.00   4.00   4.00   4.00   4.00   4.00   0.41   0.00   0.00      0      0      0       0     893
 1987 331   147   144   21.0      4   3.08   3114   3819      0   5032   9392      0    0.0  0.000   2459      0  0.000  0.000  0.038  0.000   1.66   0.00   0.26      0   2459     99.0   0.00   0.00   1.13   4.00   4.00   4.00   4.00   4.00   4.00   4.00   0.63   0.00   0.00      0      0      0       0     918
 1987 332   148   145   21.0      4   3.07   3046   3897      0   5155   9594      0    0.0  0.000   2652      0  0.000  0.000  0.034  0.000   1.66   0.00   0.28      0   2652    100.8   0.00   0.00   1.14   4.00   4.00   4.00   4.00   4.00   4.00   4.00   0.89   0.00   0.00      0      0      0       0     943
 1987 333   149   146   21.0      5   3.05   3046   3897    252   5207   9847   3367    7.5  0.026   2904      7  0.000  0.000  0.041  0.000   1.61   8.69   0.29      0   2904    100.3   0.00   0.00   1.15   4.00   4.00   4.00   4.00   4.00   4.00   4.00   1.04   0.00   0.00      0      0      0       0     969
 1987 334   150   147   21.0      5   3.03   3046   3897    505   5255  10099   3367   15.0  0.050   3157      7  0.000  0.000  0.051  0.000   1.56  16.00   0.31      0   3157     99.6   0.00   0.00   1.16   4.00   4.00   4.00   4.00   4.00   4.00   4.00   1.18   0.00   0.00      0      0      0       0     995
 1987 335   151   148   21.0      5   3.01   3046   3897    757   5302  10352   3367   22.5  0.073   3409      7  0.000  0.000  0.055  0.000   1.51  22.22   0.33      0   3409     98.9   0.00   0.00   1.18   4.00   4.00   4.00   4.00   4.00   4.00   4.00   1.32   0.00   0.00      0      0      0       0    1021
 1987 336   152   149   21.0      5   2.99   3046   3897   1010   5294  10604   3367   30.0  0.095   3662      7  0.000  0.000  0.061  0.000   1.47  27.58   0.35      0   3662     98.2   0.00   0.00   1.19   4.00   4.00   4.00   4.00   4.00   4.00   3.99   1.35   0.00   0.00      0      0      0       0    1048
 1987 337   153   150   21.0      5   2.97   3046   3821   1253   5267  10772   3367   37.2  0.116   3905      7  0.000  0.000  0.068  0.000   1.44  32.09   0.36      0   3905     97.4   0.00   0.00   1.19   4.00   4.00   4.00   4.00   4.00   4.00   3.99   1.35   0.00   0.00      0      0      0       0    1074
 1987 338   154   151   21.0      5   2.94   3046   3851   1397   5256  10946   3367   41.5  0.128   4049      7  0.000  0.000  0.078  0.000   1.41  34.50   0.37      0   4049     96.4   0.00   0.00   1.20   4.00   4.00   4.00   4.00   4.00   3.99   3.98   1.37   0.00   0.00      0      0      0       0    1101
 1987 339   155   152   21.0      5   2.91   3046   3897   1570   5322  11165   3367   46.6  0.141   4222      7  0.000  0.000  0.075  0.000   1.37  37.19   0.38      0   4222     95.5   0.00   0.00   1.20   4.00   4.00   4.00   4.00   4.00   4.00   4.00   1.50   0.00   0.00      0      0      0       0    1127
 1987 340   156   153   21.0      5   2.88   3046   3897   1776   5375  11370   3367   52.7  0.156   4427      7  0.000  0.000  0.081  0.158   1.33  40.11   0.39      0   4427     94.5   0.00   0.00   1.21   4.00   4.00   4.00   4.00   4.00   4.00   4.00   1.58   0.00   0.00      0      0      0       0    1153
 1987 341   157   154   21.0      5   2.85   3046   3895   1972   5348  11564   3367   58.6  0.170   4623      7  0.000  0.000  0.091  0.071   1.30  42.65   0.40      0   4623     93.5   0.00   0.00   1.21   4.00   4.00   4.00   4.00   4.00   4.00   4.00   1.58   0.00   0.00      0      0      0       0    1180
 1987 342   158   155   21.0      5   2.81   3046   3897   2163   5384  11757   3367   64.2  0.184   4814      7  0.000  0.000  0.097  0.056   1.27  44.92   0.41      0   4814     92.3   0.00   0.00   1.22   4.00   4.00   4.00   4.00   4.00   4.00   4.00   1.61   0.00   0.00      0      0      0       0    1207
 1987 343   159   156   21.0      5   2.78   3046   3897   2346   5435  11941   3367   69.7  0.196   4998      7  0.000  0.000  0.102  0.020   1.24  46.94   0.42      0   4998     91.2   0.00   0.00   1.23   4.00   4.00   4.00   4.00   4.00   4.00   4.00   1.63   0.00   0.00      0      0      0       0    1234
 1987 344   160   157   21.0      5   2.74   3046   3897   2591   5480  12185   3367   77.0  0.213   5242      7  0.000  0.000  0.106  0.000   1.20  49.42   0.43      0   5242     90.0   0.00   0.00   1.24   4.00   4.00   4.00   4.00   4.00   4.00   4.00   1.65   0.00   0.00      0      0      0       0    1261
 1987 345   161   158   21.0      5   2.70   3046   3897   2830   5478  12424   3367   84.1  0.228   5481      7  0.000  0.000  0.114  0.000   1.16  51.62   0.44      0   5481     88.7   0.00   0.00   1.25   4.00   4.00   4.00   4.00   4.00   4.00   4.00   1.65   0.00   0.00      0      0      0       0    1289
 1987 346   162   159   21.0      5   2.66   3046   3897   2999   5535  12593   3367   89.1  0.238   5651      7  0.000  0.000  0.123  0.000   1.14  53.07   0.45      0   5651     87.3   0.00   0.00   1.25   4.00   4.00   4.00   4.00   4.00   4.00   4.00   1.67   0.00   0.00      0      0      0       0    1316
 1987 347   163   160   21.0      5   2.62   3046   3897   3171   5593  12766   3367   94.2  0.248   5823      7  0.000  0.000  0.127  0.000   1.12  54.46   0.46      0   5823     85.9   0.00   0.00   1.25   4.00   4.00   4.00   4.00   4.00   4.00   4.00   1.70   0.00   0.00      0      0      0       0    1344
 1987 348   164   161   21.0      5   2.57   3046   3897   3380   5582  12974   3367  100.4  0.261   6032      7  0.000  0.000  0.131  0.000   1.09  56.04   0.46      0   6032     84.5   0.00   0.00   1.25   4.00   4.00   4.00   4.00   4.00   4.00   3.99   1.70   0.00   0.00      0      0      0       0    1372
 1987 349   165   162   21.0      5   2.53   3046   3897   3632   5586  13227   3367  107.9  0.275   6284      7  0.000  0.000  0.136  0.000   1.05  57.80   0.48      0   6284     83.1   0.00   0.00   1.25   4.00   4.00   4.00   4.00   4.00   4.00   4.00   1.70   0.00   0.00      0      0      0       0    1399
 1987 350   166   163   21.0      5   2.48   3046   3827   3869   5558  13394   3367  114.9  0.289   6521      7  0.000  0.000  0.146  0.000   1.02  59.34   0.49      0   6521     81.6   0.00   0.00   1.25   4.00   4.00   4.00   4.00   4.00   4.00   4.00   1.70   0.00   0.00      0      0      0       0    1427
 1987 351   167   164   21.0      5   2.44   3046   3897   4062   5595  13657   3367  120.7  0.297   6714      7  0.000  0.000  0.156  0.000   0.99  60.51   0.49      0   6714     80.0   0.00   0.00   1.25   4.00   4.00   4.00   4.00   4.00   4.00   4.00   1.72   0.00   0.00      0      0      0       0    1455
 1987 352   168   165   21.0      5   2.39   3046   3897   4231   5620  13825   3367  125.7  0.306   6882      7  0.000  0.000  0.159  0.136   0.96  61.47   0.50      0   6882     78.4   0.00   0.00   1.25   4.00   4.00   4.00   4.00   4.00   4.00   4.00   1.73   0.00   0.00      0      0      0       0    1483
 1987 353   169   166   21.0      5   2.34   3046   3897   4404   5659  13999   3367  130.8  0.315   7056      7  0.000  0.000  0.169  0.027   0.94  62.42   0.50      0   7056     76.7   0.00   0.00   1.25   4.00   4.00   4.00   4.00   4.00   4.00   4.00   1.75   0.00   0.00      0      0      0       0    1511
 1987 354   170   167   21.0      5   2.29   3046   3897   4603   5673  14198   3367  136.7  0.324   7255      7  0.000  0.000  0.174  0.001   0.92  63.45   0.51      0   7255     75.0   0.00   0.00   1.25   4.00   4.00   4.00   4.00   4.00   4.00   4.00   1.76   0.00   0.00      0      0      0       0    1540
 1987 355   171   168   21.0      5   2.23   3046   3897   4762   5723  14357   3367  141.5  0.332   7414      7  0.000  0.000  0.181  0.000   0.90  64.23   0.52      0   7414     73.3   0.00   0.00   1.25   4.00   4.00   4.00   4.00   4.00   4.00   4.00   1.78   0.00   0.00      0      0      0       0    1568
 1987 356   172   169   21.0      5   2.18   3046   3897   4926   5739  14520   3367  146.3  0.339   7577      7  0.000  0.000  0.185  0.000   0.88  65.00   0.52      0   7577     71.7   0.00   0.00   1.25   4.00   4.00   4.00   4.00   4.00   4.00   4.00   1.79   0.00   0.00      0      0      0       0    1597
 1987 357   173   170   21.0      5   2.13   3046   3897   5108   5757  14703   3367  151.7  0.347   7760      7  0.000  0.000  0.189  0.000   0.86  65.83   0.53      0   7760     70.0   0.00   0.00   1.25   4.00   4.00   4.00   4.00   4.00   4.00   4.00   1.80   0.00   0.00      0      0      0       0    1625
 1987 358   174   171   21.0      5   2.08   3046   3897   5310   5790  14905   3367  157.7  0.356   7962      7  0.000  0.000  0.195  0.000   0.84  66.70   0.53      0   7962     68.3   0.00   0.00   1.25   4.00   4.00   4.00   4.00   4.00   4.00   4.00   1.81   0.00   0.00      0      0      0       0    1654
 1987 359   175   172   21.0      5   2.03   3046   3826   5517   5761  15041   3367  163.9  0.367   8168      7  0.000  0.000  0.206  0.000   0.83  67.54   0.54      0   8168     66.5   0.00   0.00   1.25   4.00   4.00   4.00   4.00   4.00   4.00   4.00   1.81   0.00   0.00      0      0      0       0    1683
 1987 360   176   173   21.0      5   1.97   3046   3770   5769   5733  15237   3367  171.4  0.379   8421      7  0.000  0.000  0.226  0.000   0.80  68.51   0.55      0   8421     64.8   0.00   0.00   1.25   4.00   4.00   4.00   4.00   4.00   4.00   4.00   1.81   0.00   0.00      0      0      0       0    1712
 1987 361   177   174   21.0      5   1.92   3046   3791   6022   5715  15511   3367  178.9  0.388   8673      7  0.000  0.000  0.243  0.000   0.77  69.43   0.56      0   8673     63.1   0.00   0.00   1.25   4.00   4.00   4.00   3.99   3.99   3.99   3.99   1.81   0.00   0.00      0      0      0       0    1740
 1987 362   178   175   21.0      5   1.87   3046   3773   6274   5686  15745   3367  186.4  0.399   8926      7  0.000  0.000  0.264  0.000   0.74  70.29   0.57      0   8926     61.3   0.00   0.00   1.25   4.00   4.00   4.00   3.99   3.99   3.99   3.99   1.81   0.00   0.00      0      0      0       0    1769
 1987 363   179   176   21.0      5   1.81   3046   3641   6512   5658  15851   3367  193.4  0.411   9164      7  0.000  0.000  0.305  0.132   0.73  71.06   0.58      0   9164     59.5   0.00   0.00   1.25   4.00   4.00   4.00   3.99   3.99   3.99   3.99   1.81   0.00   0.00      0      0      0       0    1797
 1987 364   180   177   21.0      5   1.76   3046   3548   6765   5629  16010   3367  200.9  0.423   9417      7  0.000  0.000  0.333  0.164   0.71  71.84   0.59      0   9417     57.7   0.00   0.00   1.25   4.00   4.00   4.00   3.99   3.99   3.99   3.99   1.81   0.00   0.00      0      0      0       0    1826
 1987 365   181   178   21.0      5   1.70   3046   3552   7017   5603  16267   3367  208.4  0.431   9669      7  0.000  0.000  0.344  0.266   0.68  72.58   0.59      0   9669     55.9   0.00   0.00   1.25   3.99   3.99   3.99   3.98   3.97   3.97   3.97   1.80   0.00   0.00      0      0      0       0    1854
 1988 001   182   179   21.0      5   1.65   3046   3580   7270   5589  16548   3367  215.9  0.439   9922      7  0.000  0.000  0.361  0.135   0.66  73.27   0.60      0   9922     54.1   0.00   0.00   1.25   4.00   4.00   4.00   3.98   3.97   3.97   3.96   1.79   0.00   0.00      0      0      0       0    1882
 1988 002   183   180   21.0      5   1.59   3046   3602   7522   5573  16823   3367  223.4  0.447  10174      7  0.000  0.000  0.394  0.043   0.63  73.94   0.60      0  10174     52.3   0.00   0.00   1.25   4.00   4.00   4.00   3.97   3.97   3.96   3.95   1.79   0.00   0.00      0      0      0       0    1910
 1988 003   184   181   21.0      5   1.54   3046   3605   7775   5546  17077   3367  230.9  0.455  10427      7  0.000  0.000  0.429  0.003   0.62  74.57   0.61      0  10427     50.5   0.00   0.00   1.25   3.98   3.98   3.98   3.95   3.95   3.94   3.93   1.78   0.00   0.00      0      0      0       0    1938
 1988 004   185   182   21.0      5   1.48   3046   3609   8027   5520  17334   3367  238.4  0.463  10679      7  0.000  0.000  0.458  0.000   0.60  75.17   0.62      0  10679     48.7   0.00   0.00   1.25   3.97   3.97   3.97   3.94   3.93   3.92   3.91   1.77   0.00   0.00      0      0      0       0    1965
 1988 005   186   183   21.0      5   1.43   3046   3492   8280   5493  17470   3367  245.9  0.474  10931      7  0.000  0.000  0.486  0.000   0.59  75.74   0.63      0  10931     46.9   0.00   0.00   1.25   3.97   3.97   3.97   3.94   3.93   3.92   3.91   1.77   0.00   0.00      0      0      0       0    1993
 1988 006   187   184   21.0      5   1.37   3046   3531   8427   5485  17656   3367  250.3  0.477  11078      7  0.000  0.000  0.520  0.000   0.58  76.06   0.63      0  11078     45.1   0.00   0.00   1.25   4.00   4.00   4.00   3.95   3.94   3.92   3.91   1.77   0.00   0.00      0      0      0       0    2021
 1988 007   188   185   21.0      5   1.32   3046   3555   8604   5469  17857   3367  255.6  0.482  11256      7  0.000  0.000  0.509  0.041   0.57  76.44   0.63      0  11256     43.4   0.00   0.00   1.25   4.00   4.00   4.00   3.94   3.93   3.92   3.89   1.76   0.00   0.00      0      0      0       0    2048
 1988 008   189   186   21.0      5   1.27   3046   3514   8839   5442  18051   3367  262.6  0.490  11491      7  0.000  0.000  0.526  0.010   0.56  76.92   0.64      0  11491     41.7   0.00   0.00   1.25   4.00   4.00   4.00   3.94   3.93   3.92   3.89   1.76   0.00   0.00      0      0      0       0    2075
 1988 009   190   187   21.0      5   1.27   3046   3514   8839   5442  18051   3367  262.6  0.490  11491      7  0.000  0.000  0.526  0.010   0.56  76.92   0.64      0  11491     41.7   0.00   0.00   1.25   4.00   4.00   4.00   3.94   3.93   3.92   3.89   1.76   0.00   0.00      0      0      0       0    2075
 1988 010   191   188   21.0      5   1.27   3046   3514   8839   5442  18051   3367  262.6  0.490  11491      7  0.000  0.000  0.526  0.010   0.56  76.92   0.64      0  11491     41.7   0.00   0.00   1.25   4.00   4.00   4.00   3.94   3.93   3.92   3.89   1.76   0.00   0.00      0      0      0       0    2075
 1988 011   192   189   21.0      5   1.27   3046   3514   8839   5442  18051   3367  262.6  0.490  11491      7  0.000  0.000  0.526  0.010   0.56  76.92   0.64      0  11491     41.7   0.00   0.00   1.25   4.00   4.00   4.00   3.94   3.93   3.92   3.89   1.76   0.00   0.00      0      0      0       0    2075

*DSSAT Cropping System Model Ver. 4.0.2.000               Aug 03, 2016; 14:33:02

*RUN   2        : UYMZ                    
 MODEL          : MZCER040 - Maize           
 EXPERIMENT     : UYMZ0120 MZ    late to create DSS                             
 TREATMENT  1   : UYMZ                    

@YEAR DOY   DAS   DAP   L#SD   GSTD   LAID   LWAD   SWAD   GWAD   RWAD   CWAD   G#AD   GWGD   HIAD   PWAD   P#AD   WSPD   WSGD   NSTD   EWSD   LN%D   SH%D   HIPD   PWDD   PWTD     SLAD   CHTD   CWID   RDPD   RL1D   RL2D   RL3D   RL4D   RL5D   RL6D   RL7D   RL8D   RL9D   RL10   CDAD   LDAD   SDAD   SNW0C   SNW1C
 1988 187     3     0    0.0      0   0.00      0      0      0      0      0      0    0.0  0.000      0      0  0.000  0.000  0.000  0.000   0.00   0.00   0.00      0      0      0.0   0.00   0.00   0.03   0.00   0.00   0.00   0.00   0.00   0.00   0.00   0.00   0.00   0.00      0      0      0       0       0
 1988 188     4     1    0.0      0   0.00      0      0      0      0      0      0    0.0  0.000      0      0  0.000  0.000  0.000  0.000   0.00   0.00   0.00      0      0      0.0   0.00   0.00   0.03   0.00   0.00   0.00   0.00   0.00   0.00   0.00   0.00   0.00   0.00      0      0      0       0       0
 1988 189     5     2    0.0      0   0.00      0      0      0      0      0      0    0.0  0.000      0      0  0.000  0.000  0.000  0.000   0.00   0.00   0.00      0      0      0.0   0.00   0.00   0.03   0.00   0.00   0.00   0.00   0.00   0.00   0.00   0.00   0.00   0.00      0      0      0       0       0
 1988 190     6     3    0.0      0   0.00      0      0      0      0      0      0    0.0  0.000      0      0  0.000  0.000  0.000  0.000   0.00   0.00   0.00      0      0      0.0   0.00   0.00   0.03   0.00   0.00   0.00   0.00   0.00   0.00   0.00   0.00   0.00   0.00      0      0      0       0       0
 1988 191     7     4    0.0      0   0.00      0      0      0      0      0      0    0.0  0.000      0      0  0.000  0.000  0.000  0.000   0.00   0.00   0.00      0      0      0.0   0.00   0.00   0.03   0.00   0.00   0.00   0.00   0.00   0.00   0.00   0.00   0.00   0.00      0      0      0       0       0
 1988 192     8     5    0.0      0   0.00      0      0      0      0      0      0    0.0  0.000      0      0  0.000  0.000  0.000  0.000   0.00   0.00   0.00      0      0      0.0   0.00   0.00   0.03   0.00   0.00   0.00   0.00   0.00   0.00   0.00   0.00   0.00   0.00      0      0      0       0       0
 1988 193     9     6    0.0      0   0.00      0      0      0      0      0      0    0.0  0.000      0      0  0.000  0.000  0.000  0.000   0.00   0.00   0.00      0      0      0.0   0.00   0.00   0.03   0.00   0.00   0.00   0.00   0.00   0.00   0.00   0.00   0.00   0.00      0      0      0       0       0
 1988 194    10     7    0.0      0   0.00      0      0      0      0      0      0    0.0  0.000      0      0  0.000  0.000  0.000  0.000   0.00   0.00   0.00      0      0      0.0   0.00   0.00   0.03   0.00   0.00   0.00   0.00   0.00   0.00   0.00   0.00   0.00   0.00      0      0      0       0       0
 1988 195    11     8    0.0      0   0.00      0      0      0      0      0      0    0.0  0.000      0      0  0.000  0.000  0.000  0.000   0.00   0.00   0.00      0      0      0.0   0.00   0.00   0.03   0.00   0.00   0.00   0.00   0.00   0.00   0.00   0.00   0.00   0.00      0      0      0       0       0
 1988 196    12     9    0.0      0   0.00      0      0      0      0      0      0    0.0  0.000      0      0  0.000  0.000  0.000  0.000   0.00   0.00   0.00      0      0      0.0   0.00   0.00   0.03   0.00   0.00   0.00   0.00   0.00   0.00   0.00   0.00   0.00   0.00      0      0      0       0       0
 1988 197    13    10    0.0      0   0.00      0      0      0      0      0      0    0.0  0.000      0      0  0.000  0.000  0.000  0.000   0.00   0.00   0.00      0      0      0.0   0.00   0.00   0.04   0.00   0.00   0.00   0.00   0.00   0.00   0.00   0.00   0.00   0.00      0      0      0       0       0
 1988 198    14    11    0.0      0   0.00      0      0      0      0      0      0    0.0  0.000      0      0  0.000  0.000  0.000  0.000   0.00   0.00   0.00      0      0      0.0   0.00   0.00   0.04   0.00   0.00   0.00   0.00   0.00   0.00   0.00   0.00   0.00   0.00      0      0      0       0       0
 1988 199    15    12    0.0      0   0.00      0      0      0      0      0      0    0.0  0.000      0      0  0.000  0.000  0.000  0.000   0.00   0.00   0.00      0      0      0.0   0.00   0.00   0.06   0.00   0.00   0.00   0.00   0.00   0.00   0.00   0.00   0.00   0.00      0      0      0       0       0
 1988 200    16    13    0.0      0   0.00      0      0      0      0      0      0    0.0  0.000      0      0  0.000  0.000  0.000  0.000   0.00   0.00   0.00      0      0      0.0   0.00   0.00   0.07   0.00   0.00   0.00   0.00   0.00   0.00   0.00   0.00   0.00   0.00      0      0      0       0       0
 1988 201    17    14    0.0      0   0.00      0      0      0      0      0      0    0.0  0.000      0      0  0.000  0.000  0.000  0.000   0.00   0.00   0.00      0      0      0.0   0.00   0.00   0.08   0.00   0.00   0.00   0.00   0.00   0.00   0.00   0.00   0.00   0.00      0      0      0       0       0
 1988 202    18    15    0.0      0   0.00      0      0      0      0      0      0    0.0  0.000      0      0  0.000  0.000  0.000  0.000   0.00   0.00   0.00      0      0      0.0   0.00   0.00   0.09   0.00   0.00   0.00   0.00   0.00   0.00   0.00   0.00   0.00   0.00      0      0      0       0       0
 1988 203    19    16    0.0      0   0.00      0      0      0      0      0      0    0.0  0.000      0      0  0.000  0.000  0.000  0.000   0.00   0.00   0.00      0      0      0.0   0.00   0.00   0.09   0.00   0.00   0.00   0.00   0.00   0.00   0.00   0.00   0.00   0.00      0      0      0       0       0
 1988 204    20    17    0.0      0   0.00      0      0      0      0      0      0    0.0  0.000      0      0  0.000  0.000  0.000  0.000   0.00   0.00   0.00      0      0      0.0   0.00   0.00   0.09   0.00   0.00   0.00   0.00   0.00   0.00   0.00   0.00   0.00   0.00      0      0      0       0       0
 1988 205    21    18    0.0      0   0.00      0      0      0      0      0      0    0.0  0.000      0      0  0.000  0.000  0.000  0.000   0.00   0.00   0.00      0      0      0.0   0.00   0.00   0.09   0.00   0.00   0.00   0.00   0.00   0.00   0.00   0.00   0.00   0.00      0      0      0       0       0
 1988 206    22    19    0.0      0   0.00      0      0      0      0      0      0    0.0  0.000      0      0  0.000  0.000  0.000  0.000   0.00   0.00   0.00      0      0      0.0   0.00   0.00   0.09   0.00   0.00   0.00   0.00   0.00   0.00   0.00   0.00   0.00   0.00      0      0      0       0       0
 1988 207    23    20    0.0      0   0.00      0      0      0      0      0      0    0.0  0.000      0      0  0.000  0.000  0.000  0.000   0.00   0.00   0.00      0      0      0.0   0.00   0.00   0.10   0.00   0.00   0.00   0.00   0.00   0.00   0.00   0.00   0.00   0.00      0      0      0       0       0
 1988 208    24    21    0.0      0   0.00      0      0      0      0      0      0    0.0  0.000      0      0  0.000  0.000  0.000  0.000   0.00   0.00   0.00      0      0      0.0   0.00   0.00   0.11   0.00   0.00   0.00   0.00   0.00   0.00   0.00   0.00   0.00   0.00      0      0      0       0       0
 1988 209    25    22    1.0      1   0.00     14     14      0     14     28      0    0.0  0.000      0      0  0.000  0.000  0.012  0.000   4.40   0.00   0.00      0      0      5.8   0.00   0.00   0.12   0.28   0.09   0.00   0.00   0.00   0.00   0.00   0.00   0.00   0.00      0      0      0       0       0
 1988 210    26    23    1.0      1   0.00     14     14      0     14     28      0    0.0  0.000      0      0  0.000  0.000  0.019  0.000   4.56   0.00   0.00      0      0      9.3   0.00   0.00   0.12   0.28   0.09   0.00   0.00   0.00   0.00   0.00   0.00   0.00   0.00      0      0      0       0       0
 1988 211    27    24    2.0      1   0.00     14     14      0     14     28      0    0.0  0.000      0      0  0.000  0.000  0.000  0.000   4.56   0.00   0.00      0      0     24.8   0.00   0.00   0.13   0.28   0.09   0.00   0.00   0.00   0.00   0.00   0.00   0.00   0.00      0      0      0       0       0
 1988 212    28    25    2.0      1   0.01     14     14      0     14     28      0    0.0  0.000      0      0  0.000  0.000  0.000  0.000   4.56   0.00   0.00      0      0     50.6   0.00   0.00   0.14   0.28   0.09   0.00   0.00   0.00   0.00   0.00   0.00   0.00   0.00      0      0      0       0       0
 1988 213    29    26    2.0      1   0.01     14     14      0     15     28      0    0.0  0.000      0      0  0.000  0.000  0.000  0.000   4.56   0.00   0.00      0      0     67.2   0.00   0.00   0.15   0.28   0.10   0.00   0.00   0.00   0.00   0.00   0.00   0.00   0.00      0      0      0       0       0
 1988 214    30    27    2.0      1   0.01     14     14      0     15     28      0    0.0  0.000      0      0  0.000  0.000  0.000  0.000   4.56   0.00   0.00      0      0     73.5   0.00   0.00   0.16   0.27   0.09   0.00   0.00   0.00   0.00   0.00   0.00   0.00   0.00      0      0      0       0       0
 1988 215    31    28    3.0      1   0.01     14     14      0     15     28      0    0.0  0.000      0      0  0.000  0.000  0.000  0.000   4.56   0.00   0.00      0      0     76.9   0.00   0.00   0.16   0.25   0.09   0.00   0.00   0.00   0.00   0.00   0.00   0.00   0.00      0      0      0       0       0
 1988 216    32    29    3.0      1   0.01     14     14      0     15     28      0    0.0  0.000      0      0  0.000  0.000  0.000  0.467   4.56   0.00   0.00      0      0     77.2   0.00   0.00   0.16   0.23   0.08   0.00   0.00   0.00   0.00   0.00   0.00   0.00   0.00      0      0      0       0       0
 1988 217    33    30    3.0      1   0.01     14     14      0     15     28      0    0.0  0.000      0      0  0.000  0.000  0.000  0.413   4.56   0.00   0.00      0      0     82.0   0.00   0.00   0.16   0.21   0.08   0.00   0.00   0.00   0.00   0.00   0.00   0.00   0.00      0      0      0       0       0
 1988 218    34    31    3.0      1   0.01     14     14      0     16     28      0    0.0  0.000      0      0  0.000  0.000  0.000  0.195   4.44   0.00   0.00      0      0     89.9   0.00   0.00   0.17   0.20   0.09   0.00   0.00   0.00   0.00   0.00   0.00   0.00   0.00      0      0      0       0       0
 1988 219    35    32    3.0      1   0.01     14     14      0     17     28      0    0.0  0.000      0      0  0.000  0.000  0.000  0.005   4.43   0.00   0.00      0      0    100.0   0.00   0.00   0.17   0.20   0.10   0.00   0.00   0.00   0.00   0.00   0.00   0.00   0.00      0      0      0       0       0
 1988 220    36    33    3.0      1   0.02     14     14      0     18     28      0    0.0  0.000      0      0  0.000  0.000  0.000  0.006   4.41   0.00   0.00      0      0    113.8   0.00   0.00   0.18   0.20   0.11   0.01   0.00   0.00   0.00   0.00   0.00   0.00   0.00      0      0      0       0       0
 1988 221    37    34    3.0      1   0.02     14     14      0     19     28      0    0.0  0.000      0      0  0.000  0.000  0.000  0.004   4.40   0.00   0.00      0      0    125.3   0.00   0.00   0.18   0.20   0.12   0.01   0.00   0.00   0.00   0.00   0.00   0.00   0.00      0      0      0       0       0
 1988 222    38    35    3.0      1   0.02     14     14      0     19     28      0    0.0  0.000      0      0  0.000  0.000  0.000  0.000   4.40   0.00   0.00      0      0    126.4   0.00   0.00   0.18   0.19   0.12   0.01   0.00   0.00   0.00   0.00   0.00   0.00   0.00      0      0      0       0       0
 1988 223    39    36    3.0      1   0.01     14     14      0     20     28      0    0.0  0.000      0      0  0.000  0.000  0.000  0.000   4.40   0.00   0.00      0      0    105.6   0.00   0.00   0.18   0.20   0.13   0.01   0.00   0.00   0.00   0.00   0.00   0.00   0.00      0      0      0       0       1
 1988 224    40    37    3.0      1   0.02     14     14      0     21     28      0    0.0  0.000      0      0  0.000  0.000  0.000  0.000   4.39   0.00   0.00      0      0    110.1   0.00   0.00   0.19   0.20   0.15   0.02   0.00   0.00   0.00   0.00   0.00   0.00   0.00      0      0      0       0       1
 1988 225    41    38    4.0      1   0.02     14     14      0     23     28      0    0.0  0.000      0      0  0.000  0.000  0.000  0.000   4.37   0.00   0.00      0      0    146.4   0.00   0.00   0.19   0.21   0.17   0.03   0.00   0.00   0.00   0.00   0.00   0.00   0.00      0      0      0       0       1
 1988 226    42    39    4.0      1   0.03     14     14      0     24     28      0    0.0  0.000      0      0  0.000  0.000  0.000  0.000   4.37   0.00   0.00      0      0    188.3   0.00   0.00   0.20   0.21   0.17   0.04   0.00   0.00   0.00   0.00   0.00   0.00   0.00      0      0      0       0       1
 1988 227    43    40    4.0      1   0.04     14     14      0     25     28      0    0.0  0.000      0      0  0.000  0.000  0.000  0.000   4.37   0.00   0.00      0      0    284.5   0.00   0.00   0.21   0.21   0.18   0.04   0.00   0.00   0.00   0.00   0.00   0.00   0.00      0      0      0       0       1
 1988 228    44    41    4.0      1   0.05     16     14      0     27     30      0    0.0  0.000      0      0  0.000  0.000  0.000  0.000   3.98   0.00   0.00      0      0    308.6   0.00   0.00   0.22   0.22   0.19   0.05   0.00   0.00   0.00   0.00   0.00   0.00   0.00      0      0      0       0       1
 1988 229    45    42    4.0      1   0.06     19     14      0     31     33      0    0.0  0.000      0      0  0.000  0.000  0.000  0.000   3.97   0.00   0.00      0      0    301.7   0.00   0.00   0.22   0.24   0.23   0.08   0.00   0.00   0.00   0.00   0.00   0.00   0.00      0      0      0       0       1
 1988 230    46    43    5.0      1   0.06     21     14      0     35     35      0    0.0  0.000      0      0  0.000  0.000  0.000  0.000   4.00   0.00   0.00      0      0    281.1   0.00   0.00   0.22   0.25   0.26   0.11   0.00   0.00   0.00   0.00   0.00   0.00   0.00      0      0      0       0       1
 1988 231    47    44    5.0      1   0.07     27     14      0     40     41      0    0.0  0.000      0      0  0.000  0.000  0.000  0.000   3.68   0.00   0.00      0      0    274.3   0.00   0.00   0.23   0.28   0.30   0.14   0.00   0.00   0.00   0.00   0.00   0.00   0.00      0      0      0       0       1
 1988 232    48    45    5.0      1   0.10     36     14      0     41     50      0    0.0  0.000      0      0  0.000  0.000  0.000  0.000   3.44   0.00   0.00      0      0    264.3   0.00   0.00   0.25   0.28   0.31   0.15   0.00   0.00   0.00   0.00   0.00   0.00   0.00      0      0      0       0       2
 1988 233    49    46    5.0      1   0.11     43     14      0     48     57      0    0.0  0.000      0      0  0.000  0.000  0.000  0.000   3.74   0.00   0.00      0      0    258.4   0.00   0.00   0.25   0.29   0.34   0.19   0.00   0.00   0.00   0.00   0.00   0.00   0.00      0      0      0       0       2
 1988 234    50    47    5.0      1   0.12     49     14      0     61     63      0    0.0  0.000      0      0  0.000  0.000  0.000  0.000   3.82   0.00   0.00      0      0    253.8   0.00   0.00   0.26   0.31   0.42   0.29   0.00   0.00   0.00   0.00   0.00   0.00   0.00      0      0      0       0       2
 1988 235    51    48    6.0      1   0.14     55     14      0     76     69      0    0.0  0.000      0      0  0.000  0.000  0.000  0.041   3.80   0.00   0.00      0      0    247.5   0.00   0.00   0.27   0.35   0.51   0.41   0.00   0.00   0.00   0.00   0.00   0.00   0.00      0      0      0       0       2
 1988 236    52    49    6.0      1   0.17     72     14      0     86     86      0    0.0  0.000      0      0  0.000  0.000  0.000  0.000   3.34   0.00   0.00      0      0    237.5   0.00   0.00   0.28   0.37   0.57   0.49   0.00   0.00   0.00   0.00   0.00   0.00   0.00      0      0      0       0       3
 1988 237    53    50    6.0      1   0.20     85     14      0     97     99      0    0.0  0.000      0      0  0.000  0.000  0.000  0.000   3.61   0.00   0.00      0      0    231.6   0.00   0.00   0.29   0.41   0.63   0.59   0.00   0.00   0.00   0.00   0.00   0.00   0.00      0      0      0       0       3
 1988 238    54    51    6.0      1   0.20     90     14      0    116    104      0    0.0  0.000      0      0  0.000  0.000  0.000  0.000   3.90   0.00   0.00      0      0    226.4   0.00   0.00   0.30   0.46   0.73   0.75   0.00   0.00   0.00   0.00   0.00   0.00   0.00      0      0      0       0       4
 1988 239    55    52    6.0      1   0.12     91     14      0    123    105      0    0.0  0.000      0      0  0.000  0.000  0.000  0.000   4.09   0.00   0.00      0      0    136.4   0.00   0.00   0.30   0.48   0.77   0.80   0.00   0.00   0.00   0.00   0.00   0.00   0.00      0      0      0       0       4
 1988 240    56    53    6.0      1   0.05     93     14      0    128    107      0    0.0  0.000      0      0  0.000  0.000  0.000  0.000   4.02   0.00   0.00      0      0     49.5   0.00   0.00   0.30   0.49   0.79   0.85   0.00   0.00   0.00   0.00   0.00   0.00   0.00      0      0      0       0       4
 1988 241    57    54    7.0      1   0.03     95     14      0    128    109      0    0.0  0.000      0      0  0.000  0.000  0.003  0.000   3.94   0.00   0.00      0      0     33.9   0.00   0.00   0.30   0.49   0.79   0.85   0.00   0.00   0.00   0.00   0.00   0.00   0.00      0      0      0       0       4
 1988 242    58    55    7.0      1   0.06    108     14      0    129    122      0    0.0  0.000      0      0  0.000  0.000  0.010  0.000   3.51   0.00   0.00      0      0     52.5   0.00   0.00   0.31   0.49   0.80   0.86   0.00   0.00   0.00   0.00   0.00   0.00   0.00      0      0      0       0       4
 1988 243    59    56    7.0      1   0.08    118     14      0    131    132      0    0.0  0.000      0      0  0.000  0.000  0.019  0.000   3.77   0.00   0.00      0      0     63.4   0.00   0.00   0.31   0.50   0.81   0.88   0.00   0.00   0.00   0.00   0.00   0.00   0.00      0      0      0       0       5
 1988 244    60    57    7.0      1   0.09    129     14      0    137    143      0    0.0  0.000      0      0  0.000  0.000  0.000  0.000   3.76   0.00   0.00      0      0     72.4   0.00   0.00   0.32   0.52   0.83   0.92   0.00   0.00   0.00   0.00   0.00   0.00   0.00      0      0      0       0       5
 1988 245    61    58    7.0      1   0.09    132     14      0    141    146      0    0.0  0.000      0      0  0.000  0.000  0.000  0.000   3.96   0.00   0.00      0      0     69.8   0.00   0.00   0.32   0.54   0.86   0.96   0.00   0.00   0.00   0.00   0.00   0.00   0.00      0      0      0       0       6
 1988 246    62    59    7.0      1   0.05    134     14      0    144    148      0    0.0  0.000      0      0  0.000  0.000  0.000  0.000   4.02   0.00   0.00      0      0     35.1   0.00   0.00   0.32   0.54   0.87   0.98   0.00   0.00   0.00   0.00   0.00   0.00   0.00      0      0      0       0       7
 1988 247    63    60    7.0      1   0.03    137     14      0    144    151      0    0.0  0.000      0      0  0.000  0.000  0.000  0.000   3.93   0.00   0.00      0      0     24.2   0.00   0.00   0.32   0.55   0.87   0.99   0.00   0.00   0.00   0.00   0.00   0.00   0.00      0      0      0       0       7
[...]
 1990 308   124   121   20.0      3   3.54   3679   3474      0   2842   7152      0    0.0  0.000      0      0  0.000  0.000  0.067  0.000   1.63   0.00   0.00      0      0     96.1   0.00   0.00   0.99   2.69   4.00   4.00   4.00   4.00   3.47   2.49   0.00   0.00   0.00      0      0      0       0     356
 1990 309   125   122   20.0      3   3.53   3702   3542      0   3050   7244      0    0.0  0.000      0      0  0.000  0.000  0.070  0.000   1.62   0.00   0.00      0      0     95.3   0.00   0.00   1.00   3.14   4.00   4.00   4.00   4.00   3.60   3.56   0.00   0.00   0.00      0      0      0       0     371
 1990 310   126   123   20.0      3   3.53   3737   3645      0   3126   7382      0    0.0  0.000      0      0  0.000  0.000  0.072  0.020   1.60   0.00   0.00      0      0     94.4   0.00   0.00   1.00   3.32   4.00   4.00   4.00   4.00   3.64   3.97   0.00   0.00   0.00      0      0      0       0     386
 1990 311   127   124   20.0      3   3.55   3787   3789      0   3230   7577      0    0.0  0.000      0      0  0.000  0.000  0.071  0.005   1.57   0.00   0.00      0      0     93.6   0.00   0.00   1.01   3.57   4.00   4.00   4.00   4.00   3.71   4.00   0.00   0.00   0.00      0      0      0       0     401
 1990 312   128   125   20.0      4   3.51   3748   3191      0   3232   7659      0    0.0  0.000    719      0  0.000  0.000  0.072  0.006   1.73   0.00   0.09      0    719     93.8   0.00   0.00   1.02   3.60   4.00   4.00   4.00   4.00   3.71   4.00   0.00   0.00   0.00      0      0      0       0     418
 1990 313   129   126   20.0      4   3.48   3707   3245      0   3271   7806      0    0.0  0.000    854      0  0.000  0.000  0.074  0.000   1.74   0.00   0.11      0    854     93.9   0.00   0.00   1.03   3.72   4.00   4.00   4.00   4.00   3.73   4.00   0.00   0.00   0.00      0      0      0       0     434
 1990 314   130   127   20.0      4   3.46   3664   3305      0   3350   7974      0    0.0  0.000   1005      0  0.000  0.000  0.051  0.000   1.74   0.00   0.13      0   1005     94.4   0.00   0.00   1.04   3.95   4.00   4.00   4.00   4.00   3.79   4.00   0.00   0.00   0.00      0      0      0       0     450
 1990 315   131   128   20.0      4   3.44   3618   3377      0   3432   8178      0    0.0  0.000   1183      0  0.000  0.000  0.048  0.000   1.74   0.00   0.14      0   1183     95.1   0.00   0.00   1.05   4.00   4.00   4.00   4.00   4.00   3.86   4.00   0.00   0.00   0.00      0      0      0       0     467
 1990 316   132   129   20.0      4   3.42   3570   3438      0   3424   8344      0    0.0  0.000   1336      0  0.000  0.000  0.045  0.000   1.75   0.00   0.16      0   1336     95.8   0.00   0.00   1.06   4.00   4.00   4.00   3.99   3.99   3.85   4.00   0.00   0.00   0.00      0      0      0       0     484
 1990 317   133   130   20.0      4   3.40   3519   3541      0   3482   8652      0    0.0  0.000   1593      0  0.000  0.000  0.041  0.000   1.75   0.00   0.18      0   1593     96.7   0.00   0.00   1.08   4.00   4.00   4.00   4.00   4.00   3.90   4.00   0.00   0.00   0.00      0      0      0       0     501
 1990 318   134   131   20.0      4   3.39   3463   3621      0   3477   8877      0    0.0  0.000   1793      0  0.000  0.000  0.037  0.000   1.75   0.00   0.20      0   1793     97.8   0.00   0.00   1.09   4.00   4.00   4.00   4.00   3.99   3.89   3.99   0.01   0.00   0.00      0      0      0       0     519
 1990 319   135   132   20.0      4   3.37   3406   3664      0   3466   8972      0    0.0  0.000   1901      0  0.000  0.000  0.035  0.000   1.76   0.00   0.21      0   1901     99.0   0.00   0.00   1.10   4.00   4.00   4.00   3.98   3.98   3.88   3.97   0.02   0.00   0.00      0      0      0       0     536
 1990 320   136   133   20.0      4   3.36   3347   3716      0   3527   9093      0    0.0  0.000   2031      0  0.000  0.000  0.034  0.000   1.77   0.00   0.22      0   2031    100.3   0.00   0.00   1.11   4.00   4.00   4.00   4.00   4.00   3.94   4.00   0.13   0.00   0.00      0      0      0       0     553
 1990 321   137   134   20.0      4   3.34   3286   3771      0   3689   9225      0    0.0  0.000   2168      0  0.000  0.000  0.031  0.000   1.78   0.00   0.24      0   2168    101.8   0.00   0.00   1.12   4.00   4.00   4.00   4.00   4.00   4.00   4.00   0.44   0.00   0.00      0      0      0       0     571
 1990 322   138   135   20.0      4   3.33   3222   3857      0   3787   9464      0    0.0  0.000   2384      0  0.000  0.000  0.028  0.010   1.78   0.00   0.25      0   2384    103.4   0.00   0.00   1.13   4.00   4.00   4.00   4.00   4.00   4.00   4.00   0.68   0.00   0.00      0      0      0       0     589
 1990 323   139   136   20.0      4   3.32   3155   3970      0   3831   9792      0    0.0  0.000   2667      0  0.000  0.000  0.025  0.000   1.78   0.00   0.27      0   2667    105.3   0.00   0.00   1.14   4.00   4.00   4.00   4.00   4.00   4.00   4.00   0.83   0.00   0.00      0      0      0       0     608
 1990 324   140   137   20.0      5   3.32   3155   3970    237   3813  10030   3161    7.5  0.024   2905      7  0.000  0.000  0.003  0.000   1.73   8.16   0.29      0   2905    105.3   0.00   0.00   1.15   3.98   3.98   3.98   3.98   3.98   3.98   3.98   0.83   0.00   0.00      0      0      0       0     627
 1990 325   141   138   20.0      5   3.31   3155   3970    474   3884  10267   3161   15.0  0.046   3142      7  0.000  0.000  0.017  0.000   1.68  15.09   0.31      0   3142    105.0   0.00   0.00   1.16   4.00   4.00   4.00   4.00   4.00   4.00   4.00   1.06   0.00   0.00      0      0      0       0     646
 1990 326   142   139   20.0      5   3.30   3155   3970    695   3945  10487   3161   22.0  0.066   3362      7  0.000  0.000  0.023  0.000   1.64  20.67   0.32      0   3362    104.7   0.00   0.00   1.17   4.00   4.00   4.00   4.00   4.00   4.00   4.00   1.27   0.00   0.00      0      0      0       0     666
 1990 327   143   140   20.0      5   3.29   3155   3970    907   4016  10699   3161   28.7  0.085   3574      7  0.000  0.000  0.028  0.000   1.60  25.37   0.33      0   3574    104.4   0.00   0.00   1.18   4.00   4.00   4.00   4.00   4.00   4.00   4.00   1.51   0.00   0.00      0      0      0       0     686
 1990 328   144   141   20.0      5   3.28   3155   3970   1144   4059  10936   3161   36.2  0.105   3811      7  0.000  0.000  0.032  0.000   1.56  30.01   0.35      0   3811    103.9   0.00   0.00   1.19   4.00   4.00   4.00   4.00   4.00   4.00   4.00   1.66   0.00   0.00      0      0      0       0     706
 1990 329   145   142   20.0      5   3.26   3155   3970   1381   4075  11173   3161   43.7  0.124   4048      7  0.000  0.000  0.037  0.000   1.51  34.11   0.36      0   4048    103.5   0.00   0.00   1.20   4.00   4.00   4.00   4.00   4.00   4.00   4.00   1.75   0.00   0.00      0      0      0       0     726
 1990 330   146   143   20.0      5   3.25   3155   3970   1577   4114  11369   3161   49.9  0.139   4244      7  0.000  0.000  0.045  0.000   1.48  37.15   0.37      0   4244    102.9   0.00   0.00   1.21   4.00   4.00   4.00   4.00   4.00   4.00   4.00   1.89   0.00   0.00      0      0      0       0     746
 1990 331   147   144   20.0      5   3.22   3155   3970   1681   4209  11473   3161   53.2  0.146   4348      7  0.000  0.000  0.052  0.000   1.46  38.65   0.38      0   4348    102.2   0.00   0.00   1.22   4.00   4.00   4.00   4.00   4.00   4.00   4.00   2.14   0.00   0.00      0      0      0       0     767
 1990 332   148   145   20.0      5   3.20   3155   3970   1808   4300  11600   3161   57.2  0.156   4475      7  0.000  0.000  0.053  0.000   1.44  40.40   0.39      0   4475    101.5   0.00   0.00   1.22   4.00   4.00   4.00   4.00   4.00   4.00   4.00   2.37   0.00   0.00      0      0      0       0     788
 1990 333   149   146   20.0      5   3.18   3155   3970   1990   4378  11783   3161   63.0  0.169   4657      7  0.000  0.000  0.053  0.000   1.41  42.73   0.40      0   4657    100.9   0.00   0.00   1.23   4.00   4.00   4.00   4.00   4.00   4.00   4.00   2.54   0.00   0.00      0      0      0       0     809
 1990 334   150   147   20.0      5   3.16   3155   3970   2195   4373  11988   3161   69.5  0.183   4863      7  0.000  0.000  0.057  0.000   1.37  45.14   0.41      0   4863    100.1   0.00   0.00   1.24   4.00   4.00   4.00   4.00   4.00   4.00   3.99   2.56   0.00   0.00      0      0      0       0     831
 1990 335   151   148   20.0      5   3.13   3155   3970   2395   4409  12187   3161   75.8  0.196   5062      7  0.000  0.000  0.063  0.000   1.34  47.31   0.42      0   5062     99.3   0.00   0.00   1.25   4.00   4.00   4.00   4.00   4.00   4.00   4.00   2.63   0.00   0.00      0      0      0       0     853
 1990 336   152   149   20.0      5   3.11   3155   3969   2561   4387  12351   3161   81.0  0.207   5228      7  0.000  0.000  0.070  0.000   1.31  48.98   0.42      0   5228     98.5   0.00   0.00   1.25   4.00   4.00   4.00   4.00   4.00   4.00   4.00   2.63   0.00   0.00      0      0      0       0     875
 1990 337   153   150   20.0      5   3.08   3155   3970   2694   4468  12487   3161   85.2  0.216   5362      7  0.000  0.000  0.076  0.000   1.29  50.25   0.43      0   5362     97.5   0.00   0.00   1.25   4.00   4.00   4.00   4.00   4.00   4.00   4.00   2.70   0.00   0.00      0      0      0       0     897
 1990 338   154   151   20.0      5   3.05   3155   3970   2869   4531  12661   3161   90.8  0.227   5536      7  0.000  0.000  0.077  0.000   1.26  51.82   0.44      0   5536     96.6   0.00   0.00   1.25   4.00   4.00   4.00   4.00   4.00   4.00   4.00   2.74   0.00   0.00      0      0      0       0     920
 1990 339   155   152   20.0      5   3.02   3155   3970   3106   4524  12898   3161   98.3  0.241   5773      7  0.000  0.000  0.079  0.000   1.22  53.80   0.45      0   5773     95.6   0.00   0.00   1.25   4.00   4.00   4.00   4.00   4.00   4.00   3.99   2.73   0.00   0.00      0      0      0       0     942
 1990 340   156   153   20.0      5   2.98   3155   3970   3325   4521  13117   3161  105.2  0.253   5992      7  0.000  0.000  0.089  0.000   1.18  55.48   0.46      0   5992     94.6   0.00   0.00   1.25   4.00   4.00   4.00   4.00   4.00   4.00   3.99   2.72   0.00   0.00      0      0      0       0     965
 1990 341   157   154   20.0      5   2.95   3155   3970   3525   4566  13318   3161  111.5  0.265   6193      7  0.000  0.000  0.097  0.000   1.15  56.93   0.46      0   6193     93.4   0.00   0.00   1.25   4.00   4.00   4.00   4.00   4.00   4.00   4.00   2.73   0.00   0.00      0      0      0       0     987
 1990 342   158   155   20.0      5   2.91   3155   3970   3685   4635  13478   3161  116.6  0.273   6353      7  0.000  0.000  0.106  0.063   1.13  58.01   0.47      0   6353     92.2   0.00   0.00   1.25   4.00   4.00   4.00   4.00   4.00   4.00   4.00   2.76   0.00   0.00      0      0      0       0    1010
 1990 343   159   156   20.0      5   2.87   3155   3970   3815   4617  13608   3161  120.7  0.280   6483      7  0.000  0.000  0.112  0.083   1.11  58.85   0.48      0   6483     90.9   0.00   0.00   1.25   4.00   4.00   4.00   3.99   3.99   3.99   3.98   2.74   0.00   0.00      0      0      0       0    1033
 1990 344   160   157   20.0      5   2.83   3155   3970   3960   4597  13752   3161  125.3  0.288   6627      7  0.000  0.000  0.115  0.421   1.08  59.75   0.48      0   6627     89.6   0.00   0.00   1.25   3.79   3.79   3.79   3.78   3.78   3.77   3.77   2.60   0.00   0.00      0      0      0       0    1057
 1990 345   161   158   20.0      5   2.78   3155   3970   4146   4632  13938   3161  131.2  0.297   6813      7  0.000  0.000  0.120  0.230   1.05  60.85   0.49      0   6813     88.3   0.00   0.00   1.25   3.92   3.92   3.92   3.80   3.79   3.77   3.75   2.58   0.00   0.00      0      0      0       0    1080
 1990 346   162   159   20.0      5   2.74   3155   3970   4262   4640  14055   3161  134.8  0.303   6930      7  0.000  0.000  0.129  0.127   1.04  61.51   0.49      0   6930     86.8   0.00   0.00   1.25   4.00   4.00   4.00   3.82   3.81   3.79   3.76   2.58   0.00   0.00      0      0      0       0    1103
 1990 347   163   160   20.0      5   2.69   3155   3970   4435   4653  14227   3161  140.3  0.312   7102      7  0.000  0.000  0.131  0.046   1.01  62.44   0.50      0   7102     85.4   0.00   0.00   1.25   4.00   4.00   4.00   3.86   3.84   3.81   3.77   2.58   0.00   0.00      0      0      0       0    1126
 1990 348   164   161   20.0      5   2.65   3155   3970   4549   4720  14341   3161  143.9  0.317   7216      7  0.000  0.000  0.139  0.004   1.00  63.03   0.50      0   7216     83.9   0.00   0.00   1.25   4.00   4.00   4.00   3.97   3.93   3.88   3.82   2.60   0.00   0.00      0      0      0       0    1149
 1990 349   165   162   20.0      5   2.60   3155   3970   4720   4782  14513   3161  149.3  0.325   7388      7  0.000  0.000  0.140  0.000   0.98  63.89   0.51      0   7388     82.5   0.00   0.00   1.25   4.00   4.00   4.00   4.00   4.00   3.96   3.86   2.62   0.00   0.00      0      0      0       0    1173
 1990 350   166   163   20.0      5   2.55   3155   3970   4947   4817  14739   3161  156.5  0.336   7614      7  0.000  0.000  0.145  0.000   0.94  64.97   0.52      0   7614     81.0   0.00   0.00   1.25   4.00   4.00   4.00   4.00   4.00   4.00   3.89   2.63   0.00   0.00      0      0      0       0    1197
 1990 351   167   164   20.0      5   2.50   3155   3961   5184   4793  14967   3161  164.0  0.346   7851      7  0.000  0.000  0.154  0.000   0.91  66.02   0.52      0   7851     79.4   0.00   0.00   1.25   4.00   4.00   4.00   4.00   4.00   4.00   3.89   2.63   0.00   0.00      0      0      0       0    1221
 1990 352   168   165   20.0      5   2.45   3155   3970   5400   4821  15193   3161  170.9  0.355   8068      7  0.000  0.000  0.165  0.000   0.88  66.94   0.53      0   8068     77.8   0.00   0.00   1.25   4.00   4.00   4.00   4.00   4.00   4.00   3.91   2.64   0.00   0.00      0      0      0       0    1245
 1990 353   169   166   20.0      5   2.40   3155   3970   5589   4869  15382   3161  176.8  0.363   8257      7  0.000  0.000  0.174  0.000   0.86  67.69   0.54      0   8257     76.1   0.00   0.00   1.25   4.00   4.00   4.00   4.00   4.00   4.00   3.95   2.65   0.00   0.00      0      0      0       0    1269
 1990 354   170   167   20.0      5   2.35   3155   3970   5789   4914  15581   3161  183.1  0.372   8456      7  0.000  0.000  0.183  0.021   0.84  68.46   0.54      0   8456     74.3   0.00   0.00   1.25   4.00   4.00   4.00   4.00   4.00   4.00   3.98   2.67   0.00   0.00      0      0      0       0    1293
 1990 355   171   168   20.0      5   2.29   3155   3970   6026   4924  15818   3161  190.6  0.381   8693      7  0.000  0.000  0.189  0.000   0.81  69.32   0.55      0   8693     72.6   0.00   0.00   1.25   4.00   4.00   4.00   4.00   4.00   4.00   3.99   2.67   0.00   0.00      0      0      0       0    1318
 1990 356   172   169   20.0      5   2.23   3155   3881   6260   4900  15963   3161  198.0  0.392   8928      7  0.000  0.000  0.200  0.000   0.79  70.12   0.56      0   8928     70.8   0.00   0.00   1.25   4.00   4.00   4.00   4.00   4.00   4.00   3.99   2.67   0.00   0.00      0      0      0       0    1342
 1990 357   173   170   20.0      5   2.17   3155   3897   6497   4883  16216   3161  205.5  0.401   9165      7  0.000  0.000  0.230  0.000   0.76  70.89   0.57      0   9165     68.9   0.00   0.00   1.25   4.00   4.00   4.00   3.99   3.99   3.99   3.97   2.65   0.00   0.00      0      0      0       0    1367
 1990 358   174   171   20.0      5   2.11   3155   3883   6685   4859  16390   3161  211.5  0.408   9353      7  0.000  0.000  0.252  0.329   0.74  71.48   0.57      0   9353     67.0   0.00   0.00   1.25   4.00   4.00   4.00   3.99   3.99   3.99   3.97   2.65   0.00   0.00      0      0      0       0    1391
 1990 359   175   172   20.0      5   2.05   3155   3970   6859   4884  16651   3161  217.0  0.412   9526      7  0.000  0.000  0.281  0.153   0.71  72.00   0.57      0   9526     65.1   0.00   0.00   1.25   4.00   4.00   4.00   4.00   4.00   4.00   3.99   2.66   0.00   0.00      0      0      0       0    1416
 1990 360   176   173   20.0      5   2.00   3155   3970   7096   4897  16888   3161  224.5  0.420   9763      7  0.000  0.000  0.297  0.045   0.69  72.68   0.58      0   9763     63.2   0.00   0.00   1.25   4.00   4.00   4.00   4.00   4.00   4.00   4.00   2.66   0.00   0.00      0      0      0       0    1440
 1990 361   177   174   20.0      5   1.93   3155   3970   7333   4902  17125   3161  232.0  0.428  10000      7  0.000  0.000  0.342  0.005   0.67  73.33   0.58      0  10000     61.3   0.00   0.00   1.25   4.00   4.00   4.00   4.00   4.00   4.00   4.00   2.66   0.00   0.00      0      0      0       0    1464
 1990 362   178   175   20.0      5   1.87   3155   3970   7467   4927  17259   3161  236.2  0.433  10134      7  0.000  0.000  0.375  0.000   0.67  73.68   0.59      0  10134     59.3   0.00   0.00   1.25   4.00   4.00   4.00   4.00   4.00   4.00   4.00   2.67   0.00   0.00      0      0      0       0    1489
 1990 363   179   176   20.0      5   1.81   3155   3970   7585   4950  17378   3161  240.0  0.436  10253      7  0.000  0.000  0.381  0.000   0.66  73.98   0.59      0  10253     57.4   0.00   0.00   1.25   4.00   4.00   4.00   4.00   4.00   4.00   4.00   2.67   0.00   0.00      0      0      0       0    1514
 1990 364   180   177   20.0      5   1.75   3155   3970   7761   4960  17553   3161  245.5  0.442  10428      7  0.000  0.000  0.382  0.000   0.65  74.42   0.59      0  10428     55.5   0.00   0.00   1.25   4.00   4.00   4.00   4.00   4.00   4.00   4.00   2.67   0.00   0.00      0      0      0       0    1538
 1990 365   181   178   20.0      5   1.69   3155   3970   7990   4956  17782   3161  252.8  0.449  10657      7  0.000  0.000  0.397  0.000   0.63  74.97   0.60      0  10657     53.7   0.00   0.00   1.25   4.00   4.00   4.00   4.00   4.00   4.00   3.99   2.66   0.00   0.00      0      0      0       0    1563
 1991 001   182   179   20.0      5   1.63   3155   3959   8227   4931  18008   3161  260.3  0.457  10894      7  0.000  0.000  0.425  0.000   0.61  75.52   0.60      0  10894     51.8   0.00   0.00   1.25   4.00   4.00   4.00   4.00   4.00   4.00   3.99   2.66   0.00   0.00      0      0      0       0    1588
 1991 002   183   180   20.0      5   1.58   3155   3930   8464   4907  18216   3161  267.8  0.465  11132      7  0.000  0.000  0.455  0.000   0.60  76.04   0.61      0  11132     50.0   0.00   0.00   1.25   4.00   4.00   4.00   4.00   4.00   4.00   3.99   2.66   0.00   0.00      0      0      0       0    1613
 1991 003   184   181   20.0      5   1.58   3155   3930   8464   4907  18216   3161  267.8  0.465  11132      7  0.000  0.000  0.455  0.000   0.60  76.04   0.61      0  11132     50.0   0.00   0.00   1.25   4.00   4.00   4.00   4.00   4.00   4.00   3.99   2.66   0.00   0.00      0      0      0       0    1613
 1991 004   185   182   20.0      5   1.58   3155   3930   8464   4907  18216   3161  267.8  0.465  11132      7  0.000  0.000  0.455  0.000   0.60  76.04   0.61      0  11132     50.0   0.00   0.00   1.25   4.00   4.00   4.00   4.00   4.00   4.00   3.99   2.66   0.00   0.00      0      0      0       0    1613
 1991 005   186   183   20.0      5   1.58   3155   3930   8464   4907  18216   3161  267.8  0.465  11132      7  0.000  0.000  0.455  0.000   0.60  76.04   0.61      0  11132     50.0   0.00   0.00   1.25   4.00   4.00   4.00   4.00   4.00   4.00   3.99   2.66   0.00   0.00      0      0      0       0    1613
