*SOIL-PLANT-ATMOSPHERE MODULE OUTPUT FILE

*DSSAT Cropping System Model Ver. 4.0.2.000               Aug 23, 2016; 16:35:33

*RUN   1        : UYSB                    
 MODEL          : CRGRO040 - Soybean         
 EXPERIMENT     : UYSB0221 SB    late to create DSS                             
 TREATMENT  1   : UYSB                    

@YEAR DOY   DAS   SRAA   TMXA   TMNA   EOAA   ETAA   EPAA   ESAA   EFAD   ETAC   EPAC   ESAC   EFAC
 1999 232     0  15.80  25.80  14.50  3.920  2.370  0.000  2.370  0.000    2.4    0.0    2.4    0.0
 1999 233     1  13.60  27.70  16.20  3.497  1.374  0.000  1.374  0.000    3.7    0.0    3.7    0.0
 1999 234     2   5.10  15.50  12.00  1.085  1.085  0.000  1.085  0.000    4.8    0.0    4.8    0.0
 1999 235     3   5.10  15.10  11.50  1.074  1.074  0.000  1.074  0.000    5.9    0.0    5.9    0.0
 1999 236     4   5.80  20.00  13.70  1.330  1.330  0.000  1.330  0.000    7.2    0.0    7.2    0.0
 1999 237     5  12.80  15.40   5.80  2.562  2.562  0.000  2.562  0.000    9.8    0.0    9.8    0.0
 1999 238     6  18.70  18.90   5.10  3.911  2.760  0.000  2.760  0.000   12.6    0.0   12.6    0.0
 1999 239     7  11.90  18.60   2.80  2.424  2.176  0.000  2.176  0.000   14.7    0.0   14.7    0.0
 1999 240     8   6.00  14.60   3.10  1.155  1.155  0.000  1.155  0.000   15.9    0.0   15.9    0.0
 1999 241     9  14.00  19.00  11.60  3.112  1.093  0.000  1.093  0.000   17.0    0.0   17.0    0.0
 1999 242    10   5.40  27.80  14.00  1.367  1.367  0.000  1.367  0.000   18.3    0.0   18.3    0.0
 1999 243    11   5.50  27.90  15.00  1.404  1.017  0.000  1.017  0.000   19.4    0.0   19.4    0.0
 1999 244    12   5.50  16.40  13.70  1.203  0.878  0.000  0.878  0.000   20.2    0.0   20.2    0.0
 1999 245    13   7.00  20.00  14.70  1.619  1.607  0.000  1.607  0.000   21.8    0.0   21.8    0.0
 1999 246    14   5.60  15.90  12.80  1.206  1.206  0.003  1.203  0.000   23.1    0.0   23.1    0.0
 1999 247    15   5.60  16.30  13.60  1.221  1.221  0.003  1.218  0.000   24.3    0.0   24.3    0.0
 1999 248    16   5.70  19.20  14.80  1.305  1.305  0.004  1.302  0.000   25.6    0.0   25.6    0.0
 1999 249    17  13.70  22.90  16.20  3.325  3.325  0.010  3.315  0.000   28.9    0.0   28.9    0.0
 1999 250    18   7.90  19.00  12.40  1.767  1.767  0.006  1.761  0.000   30.7    0.0   30.6    0.0
 1999 251    19  18.60  19.80   7.40  4.021  4.021  0.015  4.006  0.000   34.7    0.0   34.7    0.0
 1999 252    20  20.70  18.30   5.90  4.321  2.703  0.027  2.676  0.000   37.4    0.1   37.3    0.0
 1999 253    21  20.50  16.00   4.00  4.063  1.852  0.026  1.825  0.000   39.2    0.1   39.2    0.0
 1999 254    22  16.80  17.00   4.00  3.379  1.274  0.022  1.252  0.000   40.5    0.1   40.4    0.0
 1999 255    23  17.60  21.20   5.20  3.800  1.042  0.026  1.016  0.000   41.6    0.1   41.4    0.0
 1999 256    24  13.60  24.70  12.40  3.270  3.270  0.014  3.256  0.000   44.8    0.2   44.7    0.0
 1999 257    25  15.20  18.00   9.50  3.267  2.419  0.025  2.394  0.000   47.3    0.2   47.1    0.0
 1999 258    26  21.10  20.00   5.20  4.481  2.478  0.035  2.443  0.000   49.7    0.2   49.5    0.0
 1999 259    27  20.70  23.60  10.50  4.832  1.424  0.039  1.385  0.000   51.2    0.3   50.9    0.0
 1999 260    28  20.50  24.50   7.60  4.723  1.123  0.040  1.083  0.000   52.3    0.3   52.0    0.0
 1999 261    29  21.90  29.80  11.70  5.565  0.970  0.050  0.920  0.000   53.2    0.3   52.9    0.0
 1999 262    30  21.60  20.10   9.30  4.766  0.864  0.050  0.814  0.000   54.1    0.4   53.7    0.0
 1999 263    31  20.60  26.00   8.90  4.888  0.794  0.056  0.738  0.000   54.9    0.5   54.5    0.0
 1999 264    32  21.40  23.20   8.90  4.899  0.743  0.063  0.680  0.000   55.6    0.5   55.1    0.0
 1999 265    33  21.40  20.60  10.70  4.810  0.702  0.068  0.634  0.000   56.4    0.6   55.8    0.0
 1999 266    34  22.90  20.90   7.50  5.022  0.673  0.077  0.596  0.000   57.0    0.7   56.4    0.0
 1999 267    35  22.50  23.10   8.10  5.106  0.648  0.084  0.564  0.000   57.7    0.7   56.9    0.0
 1999 268    36   6.60  20.50   8.70  1.455  0.562  0.026  0.537  0.000   58.2    0.8   57.5    0.0
 1999 269    37   7.30  19.60  10.60  1.617  0.543  0.030  0.513  0.000   58.8    0.8   58.0    0.0
 1999 270    38  20.30  20.40  11.50  4.579  0.585  0.093  0.492  0.000   59.4    0.9   58.5    0.0
 1999 271    39   9.10  21.60  11.70  2.088  0.521  0.047  0.474  0.000   59.9    0.9   58.9    0.0
 1999 272    40  22.90  17.60   7.00  4.770  0.574  0.116  0.458  0.000   60.5    1.1   59.4    0.0
 1999 273    41  21.80  22.80   3.20  4.712  2.520  0.120  2.400  0.000   63.0    1.2   61.8    0.0
 1999 274    42   6.90  14.10   8.50  1.386  1.386  0.023  1.363  0.000   64.4    1.2   63.2    0.0
 1999 275    43  20.80  14.90   5.60  4.108  3.825  0.115  3.710  0.000   68.2    1.3   66.9    0.0
 1999 276    44  23.90  12.80   1.70  4.388  3.171  0.126  3.045  0.000   71.4    1.4   69.9    0.0
 1999 277    45  22.10  13.20  -0.50  3.988  1.556  0.116  1.440  0.000   72.9    1.6   71.4    0.0
 1999 278    46   8.90  17.30   4.50  1.801  1.161  0.053  1.108  0.000   74.1    1.6   72.5    0.0
 1999 279    47  12.90  20.20  12.20  2.915  2.915  0.055  2.860  0.000   77.0    1.7   75.3    0.0
 1999 280    48   7.20  16.80  13.40  1.572  1.572  0.032  1.540  0.000   78.6    1.7   76.9    0.0
 1999 281    49  13.30  18.70  12.30  2.948  2.948  0.064  2.884  0.000   81.5    1.8   79.8    0.0
 1999 282    50  15.20  18.30   8.40  3.233  3.233  0.093  3.141  0.000   84.7    1.9   82.9    0.0
 1999 283    51  23.00  21.30   8.70  5.107  3.679  0.204  3.476  0.000   88.4    2.1   86.4    0.0
 1999 284    52  24.00  23.80   9.60  5.546  2.477  0.237  2.240  0.000   90.9    2.3   88.6    0.0
 1999 285    53   7.40  19.00  12.70  1.650  1.650  0.048  1.602  0.000   92.5    2.3   90.2    0.0
 1999 286    54   7.40  18.00  15.40  1.666  1.666  0.052  1.614  0.000   94.2    2.4   91.8    0.0
 1999 287    55   7.50  15.40  12.20  1.584  1.584  0.053  1.531  0.000   95.8    2.4   93.4    0.0
 1999 288    56  11.40  23.90  12.80  2.704  2.704  0.094  2.610  0.000   98.5    2.5   96.0    0.0
 1999 289    57  22.60  22.30  11.10  5.176  3.396  0.310  3.086  0.000  101.9    2.8   99.0    0.0
 1999 290    58  26.50  25.90  10.20  6.298  2.073  0.406  1.667  0.000  104.0    3.3  100.7    0.0
 1999 291    59  26.60  26.20  13.50  6.512  1.653  0.454  1.199  0.000  105.6    3.7  101.9    0.0
 1999 292    60  26.50  27.00   9.90  6.358  1.469  0.482  0.988  0.000  107.1    4.2  102.9    0.0
 1999 293    61  26.10  27.20  13.00  6.430  1.381  0.521  0.860  0.000  108.5    4.7  103.8    0.0
 1999 294    62  22.20  28.40  13.10  5.547  1.255  0.483  0.771  0.000  109.7    5.2  104.5    0.0
 1999 295    63  20.50  23.00  12.70  4.773  1.185  0.480  0.706  0.000  110.9    5.7  105.2    0.0
 1999 296    64  16.90  23.20  12.20  3.921  1.095  0.440  0.654  0.000  112.0    6.1  105.9    0.0
 1999 297    65  15.20  23.30  12.60  3.537  1.054  0.441  0.613  0.000  113.1    6.6  106.5    0.0
 1999 298    66  15.90  22.70  15.50  3.753  1.098  0.520  0.578  0.000  114.2    7.1  107.1    0.0
 1999 299    67  26.40  24.80  13.50  6.274  1.529  0.980  0.549  0.000  115.7    8.1  107.6    0.0
 1999 300    68  25.10  26.30  15.20  6.139  1.603  1.079  0.524  0.000  117.3    9.1  108.2    0.0
 1999 301    69  20.90  29.60  15.50  5.303  1.564  1.062  0.502  0.000  118.9   10.2  108.7    0.0
 1999 302    70  25.80  27.20  18.20  6.476  1.958  1.475  0.483  0.000  120.8   11.7  109.1    0.0
 1999 303    71  14.70  24.00  17.40  3.516  1.379  0.914  0.465  0.000  122.2   12.6  109.6    0.0
 1999 304    72  21.10  25.90  16.80  5.112  1.942  1.492  0.450  0.000  124.1   14.1  110.1    0.0
 1999 305    73  10.60  24.60  15.60  2.492  1.249  0.814  0.435  0.000  125.4   14.9  110.5    0.0
 1999 306    74  25.30  25.70  15.50  5.994  2.567  2.144  0.423  0.000  128.0   17.0  110.9    0.0
 1999 307    75  24.20  24.00  14.00  5.521  2.580  2.170  0.411  0.000  130.5   19.2  111.3    0.0
 1999 308    76   8.30  17.00  12.00  1.692  1.118  0.718  0.400  0.000  131.7   19.9  111.7    0.0
 1999 309    77  28.80  22.60  10.30  6.220  3.094  2.704  0.390  0.000  134.7   22.6  112.1    0.0
 1999 310    78  29.10  27.80   9.90  6.662  3.416  3.035  0.380  0.000  138.2   25.7  112.5    0.0
 1999 311    79  15.40  20.70  13.60  3.315  2.399  1.599  0.800  0.000  140.6   27.3  113.3    0.0
 1999 312    80  25.00  19.00   8.50  5.015  2.895  2.518  0.376  0.000  143.5   29.8  113.7    0.0
 1999 313    81  27.50  17.50   6.50  5.294  3.086  2.718  0.368  0.000  146.5   32.5  114.0    0.0
 1999 314    82  29.20  20.70   2.70  5.667  3.318  2.958  0.360  0.000  149.9   35.5  114.4    0.0
 1999 315    83  29.30  25.40   8.50  6.364  6.364  2.618  3.745  0.000  156.2   38.1  118.1    0.0
 1999 316    84  28.50  28.30  10.00  6.475  6.475  3.343  3.132  0.000  162.7   41.4  121.3    0.0
 1999 317    85  27.40  27.10  14.70  6.347  6.347  3.616  2.731  0.000  169.0   45.0  124.0    0.0
 1999 318    86  24.70  27.00  12.90  5.613  4.794  3.376  1.419  0.000  173.8   48.4  125.4    0.0
 1999 319    87  30.30  29.00  14.10  7.092  5.521  4.422  1.098  0.000  179.4   52.8  126.5    0.0
 1999 320    88  30.30  29.00  12.80  6.998  5.447  4.517  0.929  0.000  184.8   57.4  127.5    0.0
 1999 321    89  26.20  28.60  12.70  6.002  4.803  3.982  0.820  0.000  189.6   61.3  128.3    0.0
 1999 322    90  25.50  28.30  13.90  5.860  5.860  3.091  2.769  0.000  195.5   64.4  131.0    0.0
 1999 323    91  23.10  28.80  14.60  5.354  5.354  2.903  2.451  0.000  200.8   67.3  133.5    0.0
 1999 324    92  22.60  27.10  15.50  5.160  5.160  3.473  1.687  0.000  206.0   70.8  135.2    0.0
 1999 325    93  29.40  27.20  14.00  6.627  6.627  3.918  2.709  0.000  212.6   74.7  137.9    0.0
 1999 326    94  30.60  25.70  12.20  6.666  6.364  4.948  1.417  0.000  219.0   79.7  139.3    0.0
 1999 327    95  15.50  25.00  12.90  3.364  3.364  1.975  1.389  0.000  222.3   81.6  140.7    0.0
 1999 328    96  24.10  26.90  14.30  5.404  5.121  4.089  1.032  0.000  227.5   85.7  141.7    0.0
 1999 329    97  23.20  29.00  11.50  5.211  5.211  3.135  2.076  0.000  232.7   88.9  143.8    0.0
 1999 330    98  10.50  23.00  15.30  2.260  2.260  1.375  0.885  0.000  234.9   90.2  144.7    0.0
 1999 331    99  24.40  27.20  14.70  5.492  5.492  3.368  2.125  0.000  240.4   93.6  146.8    0.0
 1999 332   100  31.30  30.40  13.30  7.228  7.228  4.463  2.766  0.000  247.7   98.1  149.6    0.0
 1999 333   101  29.40  32.10  14.10  6.959  6.959  5.318  1.641  0.000  254.6  103.4  151.2    0.0
 1999 334   102  31.80  33.90  17.50  7.862  7.862  5.549  2.313  0.000  262.5  108.9  153.5    0.0
 1999 335   103  18.00  32.00  17.70  4.364  4.364  2.999  1.365  0.000  266.8  111.9  154.9    0.0
 1999 336   104   9.00  22.70  14.30  1.907  1.907  1.208  0.699  0.000  268.7  113.1  155.6    0.0
 1999 337   105  20.40  24.80  13.80  4.418  4.418  2.797  1.621  0.000  273.2  115.9  157.2    0.0
 1999 338   106  31.10  30.50  15.60  7.298  7.298  4.632  2.666  0.000  280.5  120.6  159.9    0.0
 1999 339   107  13.40  22.00  10.90  2.734  2.734  1.740  0.994  0.000  283.2  122.3  160.9    0.0
 1999 340   108  32.30  21.80   7.90  6.403  6.403  4.071  2.332  0.000  289.6  126.4  163.2    0.0
 1999 341   109  24.30  22.60   8.00  4.872  4.872  3.101  1.772  0.000  294.5  129.5  165.0    0.0
 1999 342   110  31.10  26.80  10.50  6.715  6.715  4.890  1.826  0.000  301.2  134.4  166.8    0.0
 1999 343   111  31.90  29.00  12.10  7.162  7.162  4.559  2.603  0.000  308.3  138.9  169.4    0.0
 1999 344   112  32.10  29.70  14.10  7.378  7.378  4.697  2.681  0.000  315.7  143.6  172.1    0.0
 1999 345   113  25.30  30.40  15.20  5.911  5.911  3.762  2.149  0.000  321.6  147.4  174.2    0.0
 1999 346   114  14.00  26.80  17.20  3.188  3.188  2.027  1.161  0.000  324.8  149.4  175.4    0.0
 1999 347   115  16.10  26.00  15.80  3.593  3.593  2.279  1.315  0.000  328.4  151.7  176.7    0.0
 1999 348   116  31.40  27.90  14.50  7.095  7.095  4.487  2.608  0.000  335.5  156.2  179.3    0.0
 1999 349   117  31.40  30.60  16.20  7.413  7.413  4.942  2.471  0.000  342.9  161.1  181.8    0.0
 1999 350   118  32.50  31.70  14.30  7.660  7.660  4.824  2.836  0.000  350.6  166.0  184.6    0.0
 1999 351   119  31.50  31.40  16.40  7.517  7.478  5.945  1.533  0.000  358.1  171.9  186.2    0.0
 1999 352   120  26.60  34.30  17.40  6.600  6.352  5.205  1.148  0.000  364.4  177.1  187.3    0.0
 1999 353   121  29.70  29.30  19.20  7.074  7.074  4.410  2.664  0.000  371.5  181.5  190.0    0.0
 1999 354   122  31.40  30.60  12.20  7.203  7.203  4.473  2.730  0.000  378.7  186.0  192.7    0.0
 1999 355   123  22.20  31.50  15.60  5.280  5.280  3.830  1.450  0.000  384.0  189.8  194.2    0.0
 1999 356   124  32.30  28.30  15.80  7.424  7.424  4.668  2.756  0.000  391.4  194.5  196.9    0.0
 1999 357   125  32.50  27.70   9.20  7.044  6.890  5.469  1.421  0.000  398.3  199.9  198.3    0.0
 1999 358   126  29.10  34.00  13.60  7.018  7.018  4.292  2.726  0.000  405.3  204.2  201.1    0.0
 1999 359   127  30.90  37.20  17.90  8.745  8.745  5.384  3.361  0.000  414.0  209.6  204.4    0.0
 1999 360   128  20.60  39.40  20.80  6.632  6.632  4.025  2.607  0.000  420.7  213.7  207.0    0.0
 1999 361   129  20.60  38.30  24.30  6.435  6.435  3.890  2.545  0.000  427.1  217.5  209.6    0.0
 1999 362   130   9.10  24.70  21.00  2.093  2.093  1.260  0.832  0.000  429.2  218.8  210.4    0.0
 1999 363   131  14.30  25.00  18.10  3.228  3.228  1.935  1.293  0.000  432.4  220.7  211.7    0.0
 1999 364   132   9.10  25.60  18.00  2.068  2.068  1.234  0.834  0.000  434.5  222.0  212.5    0.0
 1999 365   133  29.10  29.50  14.10  6.716  6.716  5.033  1.683  0.000  441.2  227.0  214.2    0.0
 2000 001   134  31.30  29.80  13.20  7.203  7.203  4.254  2.949  0.000  448.4  231.3  217.2    0.0
 2000 002   135  28.90  30.20  14.00  6.725  6.725  3.951  2.774  0.000  455.1  235.2  219.9    0.0
 2000 003   136  32.10  30.50  13.30  7.459  7.459  5.489  1.970  0.000  462.6  240.7  221.9    0.0
 2000 004   137  28.60  30.70  12.90  6.644  6.644  4.449  2.195  0.000  469.2  245.1  224.1    0.0
 2000 005   138  28.90  32.60  16.30  7.036  6.547  5.204  1.343  0.000  475.8  250.3  225.4    0.0
 2000 006   139  32.10  34.30  15.30  7.907  7.907  4.551  3.356  0.000  483.7  254.9  228.8    0.0
 2000 007   140  31.30  35.60  18.10  8.194  8.194  5.035  3.160  0.000  491.9  259.9  232.0    0.0
 2000 008   141  33.00  37.00  17.40  9.269  9.269  6.246  3.022  0.000  501.2  266.2  235.0    0.0
 2000 009   142  21.20  36.80  20.00  6.001  6.001  3.762  2.239  0.000  507.2  269.9  237.2    0.0
 2000 010   143  25.30  34.20  19.20  6.412  6.412  4.305  2.108  0.000  513.6  274.2  239.3    0.0
 2000 011   144  32.10  34.80  17.60  8.100  8.100  4.540  3.560  0.000  521.7  278.8  242.9    0.0
 2000 012   145  25.60  36.00  18.60  6.890  6.890  4.084  2.807  0.000  528.6  282.9  245.7    0.0
 2000 013   146  29.40  37.20  19.10  8.462  8.462  4.689  3.774  0.000  537.0  287.6  249.5    0.0
 2000 014   147   9.00  24.00  20.70  2.065  2.065  1.138  0.927  0.000  539.1  288.7  250.4    0.0
 2000 015   148  21.90  31.80  21.00  5.495  5.495  3.010  2.485  0.000  544.6  291.7  252.9    0.0
 2000 016   149  22.40  34.00  20.40  5.732  5.732  3.119  2.613  0.000  550.3  294.8  255.5    0.0
 2000 017   150   9.90  28.60  20.60  2.396  2.396  1.295  1.101  0.000  552.7  296.1  256.6    0.0
 2000 018   151  31.00  30.90  16.80  7.487  7.487  4.492  2.995  0.000  560.2  300.6  259.6    0.0
 2000 019   152  30.30  30.90  17.30  7.349  7.349  4.487  2.863  0.000  567.6  305.1  262.5    0.0
 2000 020   153  30.80  34.30  16.30  7.700  6.703  5.273  1.429  0.000  574.3  310.4  263.9    0.0
 2000 021   154  23.60  35.00  17.70  6.007  5.193  4.090  1.103  0.000  579.5  314.5  265.0    0.0
 2000 022   155  12.00  28.00  21.00  2.902  2.897  1.965  0.932  0.000  582.3  316.4  265.9    0.0
 2000 023   156  29.40  28.70  17.60  6.990  5.528  4.705  0.822  0.000  587.9  321.1  266.7    0.0
 2000 024   157  21.40  28.50  17.60  5.079  5.079  2.626  2.453  0.000  593.0  323.8  269.2    0.0
 2000 025   158  30.70  29.00  16.60  7.277  7.277  3.740  3.537  0.000  600.2  327.5  272.7    0.0
 2000 026   159  30.30  29.10  13.90  7.048  6.739  4.667  2.072  0.000  607.0  332.2  274.8    0.0
 2000 027   160  30.30  29.20  14.00  7.151  6.134  4.133  2.001  0.000  613.1  336.3  276.8    0.0
 2000 028   161  30.60  30.00  16.90  7.541  5.042  3.742  1.300  0.000  618.1  340.0  278.1    0.0
 2000 029   162  30.40  32.20  15.40  7.679  4.269  3.228  1.041  0.000  622.4  343.3  279.1    0.0
 2000 030   163  12.00  31.00  18.20  3.085  3.085  0.822  2.263  0.000  625.5  344.1  281.4    0.0
 2000 031   164  15.30  24.50  19.00  3.710  3.710  0.788  2.922  0.000  629.2  344.9  284.3    0.0
 2000 032   165  13.00  24.90  19.80  3.211  2.700  0.773  1.927  0.000  631.9  345.7  286.3    0.0
 2000 033   166  10.70  27.10  19.10  2.713  2.713  0.366  2.347  0.000  634.6  346.0  288.6    0.0
 2000 034   167  16.10  28.40  18.40  4.143  4.143  0.448  3.696  0.000  638.8  346.5  292.3    0.0
 2000 035   168  27.20  27.60  16.10  6.847  5.573  0.898  4.675  0.000  644.3  347.4  297.0    0.0
 2000 036   169  29.40  31.10  15.90  7.716  2.677  0.820  1.857  0.000  647.0  348.2  298.8    0.0
 2000 037   170  29.30  37.20  16.10  9.072  2.041  0.780  1.261  0.000  649.1  349.0  300.1    0.0

*DSSAT Cropping System Model Ver. 4.0.2.000               Aug 23, 2016; 16:35:33

*RUN   2        : UYSB                    
 MODEL          : CRGRO040 - Soybean         
 EXPERIMENT     : UYSB0221 SB    late to create DSS                             
 TREATMENT  1   : UYSB                    

@YEAR DOY   DAS   SRAA   TMXA   TMNA   EOAA   ETAA   EPAA   ESAA   EFAD   ETAC   EPAC   ESAC   EFAC
 2000 232     0  17.30  27.50   8.20  4.165  3.100  0.000  3.100  0.000    3.1    0.0    3.1    0.0
 2000 233     1   5.00  18.40  14.40  1.130  1.130  0.000  1.130  0.000    4.2    0.0    4.2    0.0
 2000 234     2   8.50  24.00  15.80  2.086  2.086  0.000  2.086  0.000    6.3    0.0    6.3    0.0
 2000 235     3  10.00  25.30  14.70  2.470  2.470  0.000  2.470  0.000    8.8    0.0    8.8    0.0
 2000 236     4   7.60  21.60  15.60  1.808  1.808  0.000  1.808  0.000   10.6    0.0   10.6    0.0
 2000 237     5   5.50  18.00  16.10  1.255  1.255  0.000  1.255  0.000   11.8    0.0   11.8    0.0
 2000 238     6   5.20  16.10  11.80  1.113  1.113  0.000  1.113  0.000   13.0    0.0   13.0    0.0
 2000 239     7  17.20  16.40   7.10  3.538  3.538  0.000  3.538  0.000   16.5    0.0   16.5    0.0
 2000 240     8  19.20  18.90   3.60  3.959  2.413  0.000  2.413  0.000   18.9    0.0   18.9    0.0
 2000 241     9  17.70  11.30   2.00  3.195  1.880  0.000  1.880  0.000   20.8    0.0   20.8    0.0
 2000 242    10  16.60  17.30   2.40  3.305  1.268  0.000  1.268  0.000   22.1    0.0   22.1    0.0
 2000 243    11  17.00  21.40   3.50  3.628  1.025  0.000  1.025  0.000   23.1    0.0   23.1    0.0
 2000 244    12  13.90  15.10   4.80  2.742  0.884  0.000  0.884  0.000   24.0    0.0   24.0    0.0
 2000 245    13  19.20  14.30  -0.90  3.527  0.788  0.000  0.788  0.000   24.8    0.0   24.8    0.0
 2000 246    14  19.30  15.90  -0.80  3.638  0.733  0.015  0.719  0.000   25.5    0.0   25.5    0.0
 2000 247    15  19.60  16.90   0.40  3.799  0.681  0.016  0.665  0.000   26.2    0.0   26.1    0.0
 2000 248    16  20.10  20.40   3.40  4.223  0.640  0.018  0.621  0.000   26.8    0.0   26.8    0.0
 2000 249    17  19.00  20.40   1.10  3.905  0.603  0.018  0.586  0.000   27.4    0.1   27.3    0.0
 2000 250    18  20.50  21.50   3.40  4.373  0.576  0.021  0.555  0.000   28.0    0.1   27.9    0.0
 2000 251    19  19.60  26.00   9.20  4.666  0.552  0.023  0.529  0.000   28.5    0.1   28.4    0.0
 2000 252    20  19.30  27.00  13.10  4.800  0.533  0.026  0.507  0.000   29.1    0.1   28.9    0.0
 2000 253    21   5.90  22.20  13.90  1.393  1.393  0.005  1.388  0.000   30.5    0.1   30.3    0.0
 2000 254    22  11.40  23.80  15.90  2.790  2.790  0.011  2.779  0.000   33.3    0.2   33.1    0.0
 2000 255    23   8.80  21.90  11.30  2.024  2.024  0.009  2.015  0.000   35.3    0.2   35.1    0.0
 2000 256    24  10.50  14.60   7.60  2.112  1.759  0.016  1.744  0.000   37.0    0.2   36.9    0.0
 2000 257    25   6.10   9.50   6.20  1.118  1.118  0.005  1.113  0.000   38.2    0.2   38.0    0.0
 2000 258    26   6.20  10.70   7.90  1.179  1.179  0.006  1.174  0.000   39.3    0.2   39.2    0.0
 2000 259    27   7.70  14.60   9.10  1.571  1.571  0.007  1.564  0.000   40.9    0.2   40.7    0.0
 2000 260    28  13.50  16.70  10.50  2.876  2.876  0.014  2.862  0.000   43.8    0.2   43.6    0.0
 2000 261    29  14.50  19.40   8.00  3.133  2.056  0.026  2.031  0.000   45.8    0.2   45.6    0.0
 2000 262    30   6.30  18.00  14.60  1.417  1.417  0.007  1.410  0.000   47.3    0.2   47.0    0.0
 2000 263    31  14.80  21.20  14.80  3.475  3.475  0.019  3.456  0.000   50.7    0.3   50.5    0.0
 2000 264    32   9.60  21.40  13.20  2.229  2.229  0.013  2.216  0.000   53.0    0.3   52.7    0.0
 2000 265    33   9.20  17.50  12.60  2.019  2.019  0.013  2.006  0.000   55.0    0.3   54.7    0.0
 2000 266    34  23.10  19.00   8.20  4.971  3.731  0.059  3.672  0.000   58.7    0.3   58.4    0.0
 2000 267    35  15.30  21.30   8.10  3.393  2.105  0.043  2.062  0.000   60.8    0.4   60.4    0.0
 2000 268    36  20.70  12.60   5.70  3.960  2.108  0.055  2.053  0.000   62.9    0.4   62.5    0.0
 2000 269    37  22.80  13.40   2.00  4.249  1.373  0.060  1.313  0.000   64.3    0.5   63.8    0.0
 2000 270    38  21.90  16.20   2.10  4.266  1.109  0.061  1.048  0.000   65.4    0.6   64.8    0.0
 2000 271    39  23.50  24.10   6.40  5.325  0.977  0.079  0.898  0.000   66.4    0.6   65.7    0.0
 2000 272    40  23.30  26.00  10.30  5.589  0.888  0.089  0.799  0.000   67.3    0.7   66.5    0.0
 2000 273    41  19.60  26.70  11.50  4.787  0.811  0.084  0.727  0.000   68.1    0.8   67.3    0.0
 2000 274    42  18.90  25.40  13.70  4.624  4.624  0.056  4.568  0.000   72.7    0.9   71.8    0.0
 2000 275    43  17.80  24.60  15.00  4.357  3.248  0.097  3.151  0.000   76.0    1.0   75.0    0.0
 2000 276    44   7.00  18.60  15.90  1.601  1.601  0.025  1.576  0.000   77.6    1.0   76.6    0.0
 2000 277    45  10.50  20.60  13.10  2.405  2.405  0.041  2.364  0.000   80.0    1.0   78.9    0.0
 2000 278    46  19.50  18.30  12.10  4.294  4.111  0.127  3.984  0.000   84.1    1.2   82.9    0.0
 2000 279    47  24.30  18.40   7.40  5.133  3.331  0.161  3.170  0.000   87.4    1.3   86.1    0.0
 2000 280    48  25.00  18.60   5.10  5.181  1.614  0.169  1.445  0.000   89.0    1.5   87.5    0.0
 2000 281    49  23.90  21.70   6.70  5.246  1.288  0.178  1.110  0.000   90.3    1.7   88.6    0.0
 2000 282    50  24.90  22.60   9.90  5.686  5.007  0.207  4.800  0.000   95.3    1.9   93.4    0.0
 2000 283    51   7.50  18.10  12.20  1.646  1.646  0.041  1.605  0.000   97.0    1.9   95.0    0.0
 2000 284    52  24.80  18.20   9.10  5.298  5.077  0.226  4.852  0.000  102.0    2.1   99.9    0.0
 2000 285    53  25.40  21.20   8.00  5.594  3.324  0.251  3.073  0.000  105.4    2.4  103.0    0.0
 2000 286    54  23.00  27.20  16.20  5.839  1.719  0.278  1.441  0.000  107.1    2.7  104.4    0.0
 2000 287    55  23.10  21.80  11.90  5.298  1.389  0.280  1.109  0.000  108.5    3.0  105.5    0.0
 2000 288    56   7.50  19.70  13.80  1.701  1.032  0.096  0.936  0.000  109.5    3.1  106.4    0.0
 2000 289    57   8.20  19.90  12.40  1.841  1.841  0.071  1.770  0.000  111.3    3.1  108.2    0.0
 2000 290    58  11.40  23.30  14.40  2.716  2.665  0.176  2.488  0.000  114.0    3.3  110.7    0.0
 2000 291    59  11.30  22.00  16.50  2.693  2.693  0.121  2.572  0.000  116.7    3.4  113.3    0.0
 2000 292    60   7.80  23.60  16.30  1.891  1.847  0.144  1.703  0.000  118.5    3.6  115.0    0.0
 2000 293    61  13.30  19.70  16.50  3.075  3.075  0.162  2.913  0.000  121.6    3.7  117.9    0.0
 2000 294    62   7.80  26.60  15.60  1.946  1.946  0.110  1.836  0.000  123.6    3.8  119.7    0.0
 2000 295    63  20.50  27.50  15.20  5.143  3.898  0.510  3.388  0.000  127.5    4.3  123.1    0.0
 2000 296    64   8.10  19.70  16.10  1.858  1.858  0.139  1.718  0.000  129.3    4.5  124.8    0.0
 2000 297    65   8.20  18.80  14.70  1.834  1.834  0.150  1.684  0.000  131.2    4.6  126.5    0.0
 2000 298    66   7.90  22.00  14.20  1.830  1.830  0.162  1.669  0.000  133.0    4.8  128.2    0.0
 2000 299    67  13.70  22.00  16.60  3.232  3.232  0.313  2.918  0.000  136.2    5.1  131.1    0.0
 2000 300    68  11.80  23.90  18.10  2.875  2.875  0.316  2.560  0.000  139.1    5.4  133.7    0.0
 2000 301    69  27.40  24.80  12.50  6.430  5.944  1.199  4.745  0.000  145.0    6.6  138.4    0.0
 2000 302    70  27.50  20.10   9.20  5.890  3.642  1.212  2.430  0.000  148.7    7.8  140.8    0.0
 2000 303    71  28.70  17.90   7.40  5.857  2.656  1.273  1.384  0.000  151.3    9.1  142.2    0.0
 2000 304    72  28.40  27.10   9.50  6.651  2.584  1.502  1.082  0.000  153.9   10.6  143.3    0.0
 2000 305    73  26.70  26.60  12.40  6.341  2.493  1.573  0.920  0.000  156.4   12.2  144.2    0.0
 2000 306    74   8.20  24.70  14.60  1.930  1.930  0.381  1.548  0.000  158.3   12.6  145.8    0.0
 2000 307    75  20.50  22.50  13.80  4.647  4.647  1.019  3.628  0.000  163.0   13.6  149.4    0.0
 2000 308    76  29.60  23.40   9.40  6.515  5.413  2.121  3.293  0.000  168.4   15.7  152.7    0.0
 2000 309    77  18.60  22.00  10.60  4.049  3.219  1.405  1.814  0.000  171.6   17.1  154.5    0.0
 2000 310    78  28.70  23.90  10.60  6.383  3.586  2.338  1.248  0.000  175.2   19.4  155.8    0.0
 2000 311    79  25.80  24.90  13.20  5.916  3.316  2.301  1.014  0.000  178.5   21.7  156.8    0.0
 2000 312    80  11.90  23.60  15.00  2.714  2.714  1.114  1.600  0.000  181.2   22.9  158.4    0.0
 2000 313    81  15.90  25.00  17.00  3.732  2.582  1.655  0.927  0.000  183.8   24.5  159.3    0.0
 2000 314    82   8.80  20.70  16.40  1.942  1.739  0.921  0.819  0.000  185.6   25.4  160.1    0.0
 2000 315    83  24.80  23.40  13.80  5.523  3.465  2.724  0.741  0.000  189.0   28.2  160.9    0.0
 2000 316    84  22.70  25.60  14.30  5.196  5.196  2.075  3.121  0.000  194.2   30.2  164.0    0.0
 2000 317    85  22.20  25.80  17.10  5.188  5.188  2.222  2.966  0.000  199.4   32.5  166.9    0.0
 2000 318    86  20.20  21.60  12.40  4.298  4.298  1.879  2.420  0.000  203.7   34.3  169.4    0.0
 2000 319    87  24.90  16.00   7.90  4.705  4.545  2.746  1.799  0.000  208.2   37.1  171.2    0.0
 2000 320    88  22.80  16.60   5.00  4.222  3.730  2.486  1.243  0.000  212.0   39.6  172.4    0.0
 2000 321    89  30.40  22.50   6.30  6.183  4.684  3.672  1.012  0.000  216.7   43.2  173.4    0.0
 2000 322    90  30.30  25.80   9.10  6.576  4.854  3.979  0.875  0.000  221.5   47.2  174.3    0.0
 2000 323    91  30.30  27.90  10.00  6.782  4.983  4.200  0.783  0.000  226.5   51.4  175.1    0.0
 2000 324    92  28.80  29.50  12.70  6.694  6.661  4.261  2.400  0.000  233.2   55.7  177.5    0.0
 2000 325    93  32.00  21.30  10.60  6.592  5.082  4.316  0.766  0.000  238.2   60.0  178.2    0.0
 2000 326    94  30.90  26.40   8.90  6.685  5.142  4.441  0.701  0.000  243.4   64.4  178.9    0.0
 2000 327    95  23.90  28.20  14.80  5.528  4.389  3.738  0.651  0.000  247.8   68.2  179.6    0.0
 2000 328    96  25.60  32.30  16.40  6.262  6.262  3.353  2.908  0.000  254.0   71.5  182.5    0.0
 2000 329    97  16.60  20.50  13.00  3.429  3.429  1.879  1.550  0.000  257.5   73.4  184.1    0.0
 2000 330    98  29.80  23.40   8.70  6.153  6.153  3.888  2.264  0.000  263.6   77.3  186.3    0.0
 2000 331    99  31.20  27.90  12.40  7.014  7.014  4.163  2.851  0.000  270.6   81.5  189.2    0.0
 2000 332   100  12.60  27.60  14.50  2.867  2.867  1.620  1.247  0.000  273.5   83.1  190.4    0.0
 2000 333   101   8.90  21.20  17.30  1.915  1.915  1.096  0.820  0.000  275.4   84.2  191.2    0.0
 2000 334   102  15.00  21.00  12.30  3.086  3.086  2.007  1.078  0.000  278.5   86.2  192.3    0.0
 2000 335   103  30.70  22.50  10.30  6.325  5.602  4.685  0.917  0.000  284.1   90.9  193.2    0.0
 2000 336   104  26.30  23.80   8.80  5.437  4.858  4.045  0.812  0.000  289.0   94.9  194.0    0.0
 2000 337   105  30.90  27.20  11.70  6.821  5.838  5.102  0.736  0.000  294.8  100.0  194.8    0.0
 2000 338   106  20.00  27.60  12.40  4.457  4.457  2.635  1.822  0.000  299.3  102.7  196.6    0.0
 2000 339   107  12.90  21.80  14.40  2.721  2.721  1.619  1.101  0.000  302.0  104.3  197.7    0.0
 2000 340   108  28.90  23.10  11.90  6.065  6.065  3.643  2.422  0.000  308.0  107.9  200.1    0.0
 2000 341   109  27.70  30.30  11.50  6.319  6.319  3.791  2.528  0.000  314.4  111.7  202.7    0.0
 2000 342   110  26.00  31.20  16.20  6.206  6.206  4.429  1.777  0.000  320.6  116.1  204.4    0.0
 2000 343   111  19.80  32.30  17.90  4.841  4.841  3.604  1.236  0.000  325.4  119.7  205.7    0.0
 2000 344   112  31.40  31.80  19.50  7.722  7.722  4.686  3.036  0.000  333.1  124.4  208.7    0.0
 2000 345   113  24.60  29.30  16.50  5.756  5.756  3.503  2.253  0.000  338.9  127.9  211.0    0.0
 2000 346   114  17.60  29.90  19.10  4.226  4.226  2.950  1.276  0.000  343.1  130.9  212.2    0.0
 2000 347   115  23.40  32.50  16.00  5.652  5.652  3.442  2.210  0.000  348.8  134.3  214.4    0.0
 2000 348   116  28.50  33.60  20.50  7.192  7.192  4.378  2.814  0.000  356.0  138.7  217.3    0.0
 2000 349   117  22.70  29.60  20.30  5.481  5.481  3.333  2.149  0.000  361.4  142.0  219.4    0.0
 2000 350   118  22.20  29.40  15.50  5.162  5.162  3.133  2.029  0.000  366.6  145.2  221.4    0.0
 2000 351   119  32.20  21.10   9.80  6.460  6.460  3.913  2.547  0.000  373.1  149.1  224.0    0.0
 2000 352   120  31.50  25.00  10.20  6.668  6.668  4.514  2.153  0.000  379.7  153.6  226.1    0.0
 2000 353   121  32.20  29.20  13.20  7.345  7.345  4.499  2.846  0.000  387.1  158.1  229.0    0.0
 2000 354   122  26.60  26.60  11.10  5.788  5.788  4.360  1.428  0.000  392.9  162.4  230.4    0.0
 2000 355   123  29.70  29.00  12.60  6.731  6.731  4.251  2.480  0.000  399.6  166.7  232.9    0.0
 2000 356   124   9.70  21.00  15.50  2.043  2.043  1.221  0.823  0.000  401.6  167.9  233.7    0.0
 2000 357   125  29.30  29.60  15.70  6.851  6.851  4.355  2.496  0.000  408.5  172.3  236.2    0.0
 2000 358   126  12.60  20.30  15.30  2.628  2.628  1.868  0.760  0.000  411.1  174.1  237.0    0.0
 2000 359   127  28.50  26.30  11.10  6.188  6.188  3.659  2.529  0.000  417.3  177.8  239.5    0.0
 2000 360   128  28.00  31.40  19.00  6.850  6.756  5.143  1.613  0.000  424.1  182.9  241.1    0.0
 2000 361   129  30.90  35.10  20.70  7.994  7.994  4.690  3.304  0.000  432.0  187.6  244.4    0.0
 2000 362   130   9.10  28.20  17.20  2.122  2.122  1.239  0.883  0.000  434.2  188.9  245.3    0.0
 2000 363   131  16.00  26.00  16.10  3.608  3.608  2.098  1.510  0.000  437.8  191.0  246.8    0.0
 2000 364   132  15.80  23.90  16.00  3.474  3.474  2.011  1.462  0.000  441.3  193.0  248.3    0.0
 2000 365   133  29.60  26.20  14.50  6.612  6.612  3.813  2.799  0.000  447.9  196.8  251.1    0.0
 2000 366   134  30.60  29.40  15.90  7.174  7.174  4.645  2.529  0.000  455.0  201.4  253.6    0.0
 2001 001   135  31.30  29.90  16.50  7.416  7.416  4.618  2.798  0.000  462.5  206.1  256.4    0.0
 2001 002   136  30.60  30.00  16.20  7.245  6.705  5.281  1.424  0.000  469.2  211.3  257.8    0.0
 2001 003   137  30.40  32.50  15.80  7.381  6.459  5.358  1.101  0.000  475.6  216.7  258.9    0.0
 2001 004   138  19.70  33.10  21.90  5.030  5.030  2.833  2.197  0.000  480.6  219.5  261.1    0.0
 2001 005   139  30.40  32.20  20.60  7.623  7.623  4.271  3.352  0.000  488.3  223.8  264.5    0.0
 2001 006   140  29.10  33.80  20.90  7.440  7.440  4.146  3.294  0.000  495.7  228.0  267.8    0.0
 2001 007   141  11.60  28.40  21.30  2.809  2.809  1.557  1.252  0.000  498.5  229.5  269.0    0.0
 2001 008   142  20.20  28.40  17.80  4.768  4.768  2.628  2.140  0.000  503.3  232.1  271.2    0.0
 2001 009   143  26.00  29.90  17.40  6.226  6.226  3.412  2.814  0.000  509.5  235.5  274.0    0.0
 2001 010   144   9.00  22.70  16.10  1.963  1.963  1.069  0.893  0.000  511.5  236.6  274.9    0.0
 2001 011   145  32.10  22.60  13.00  6.818  6.818  3.696  3.122  0.000  518.3  240.3  278.0    0.0
 2001 012   146  31.60  23.70   9.90  6.633  6.633  4.005  2.628  0.000  524.9  244.3  280.6    0.0
 2001 013   147  23.50  27.60  13.10  5.314  5.314  3.293  2.021  0.000  530.2  247.6  282.6    0.0
 2001 014   148  17.00  30.30  20.40  4.190  4.190  2.234  1.956  0.000  534.4  249.8  284.6    0.0
 2001 015   149  25.70  28.30  20.60  6.210  6.210  3.290  2.920  0.000  540.6  253.1  287.5    0.0
 2001 016   150  23.10  29.90  19.80  5.651  5.651  3.595  2.056  0.000  546.3  256.7  289.6    0.0
 2001 017   151  14.90  26.50  20.10  3.520  3.520  1.841  1.679  0.000  549.8  258.6  291.2    0.0
 2001 018   152  12.60  25.00  21.50  2.959  2.959  1.537  1.422  0.000  552.8  260.1  292.7    0.0
 2001 019   153  14.80  26.40  18.00  3.441  3.441  1.776  1.665  0.000  556.2  261.9  294.3    0.0
 2001 020   154  30.30  25.80  14.10  6.788  6.615  4.509  2.106  0.000  562.8  266.4  296.4    0.0
 2001 021   155  30.60  26.30  12.40  6.808  6.630  4.496  2.134  0.000  569.5  270.9  298.6    0.0
 2001 022   156  13.90  28.10  14.80  3.221  3.221  1.890  1.331  0.000  572.7  272.8  299.9    0.0
 2001 023   157  30.60  30.50  17.90  7.462  5.929  4.873  1.057  0.000  578.6  277.7  301.0    0.0
 2001 024   158  29.90  32.20  16.30  7.346  5.672  4.768  0.904  0.000  584.3  282.4  301.9    0.0
 2001 025   159  28.50  32.30  19.70  7.188  5.441  4.638  0.803  0.000  589.7  287.1  302.7    0.0
 2001 026   160  22.70  33.40  20.30  5.820  5.820  3.266  2.554  0.000  595.5  290.3  305.2    0.0
 2001 027   161   9.90  25.50  21.60  2.352  2.352  1.155  1.197  0.000  597.9  291.5  306.4    0.0
 2001 028   162   8.70  21.60  18.50  1.928  1.928  0.941  0.987  0.000  599.8  292.4  307.4    0.0
 2001 029   163  28.00  26.90  12.20  6.369  6.369  2.701  3.668  0.000  606.2  295.1  311.1    0.0
 2001 030   164  29.30  26.40  15.70  6.893  5.822  3.242  2.580  0.000  612.0  298.4  313.6    0.0
 2001 031   165  26.50  30.50  18.10  6.725  4.499  2.669  1.830  0.000  616.5  301.0  315.5    0.0
 2001 032   166  18.70  30.20  20.80  4.872  2.866  1.613  1.253  0.000  619.4  302.6  316.7    0.0
 2001 033   167  28.80  32.40  20.60  7.736  3.135  2.118  1.017  0.000  622.5  304.8  317.7    0.0
 2001 034   168  26.00  25.70  17.20  6.367  2.310  1.432  0.879  0.000  624.8  306.2  318.6    0.0
 2001 035   169  29.50  28.60  14.10  7.340  2.133  1.348  0.785  0.000  627.0  307.5  319.4    0.0
 2001 036   170  28.60  27.50  18.70  7.315  7.315  0.962  6.353  0.000  634.3  308.5  325.8    0.0
 2001 037   171  29.30  31.60  16.20  7.733  4.103  0.938  3.165  0.000  638.4  309.4  328.9    0.0
 2001 038   172  29.30  34.30  20.30  8.223  2.253  0.808  1.445  0.000  640.6  310.3  330.4    0.0
 2001 039   173  12.40  29.90  20.30  3.330  3.330  0.169  3.161  0.000  644.0  310.4  333.5    0.0

*DSSAT Cropping System Model Ver. 4.0.2.000               Aug 23, 2016; 16:35:33

*RUN   3        : UYSB                    
 MODEL          : CRGRO040 - Soybean         
 EXPERIMENT     : UYSB0221 SB    late to create DSS                             
 TREATMENT  1   : UYSB                    

@YEAR DOY   DAS   SRAA   TMXA   TMNA   EOAA   ETAA   EPAA   ESAA   EFAD   ETAC   EPAC   ESAC   EFAC
 2001 232     0  15.90  16.40   5.20  3.211  3.211  0.000  3.211  0.000    3.2    0.0    3.2    0.0
 2001 233     1  17.50  17.10   2.50  3.477  2.792  0.000  2.792  0.000    6.0    0.0    6.0    0.0
 2001 234     2  17.20  17.80   6.00  3.572  2.889  0.000  2.889  0.000    8.9    0.0    8.9    0.0
 2001 235     3  10.00  16.90   8.10  2.091  1.149  0.000  1.149  0.000   10.0    0.0   10.0    0.0
 2001 236     4   8.90  20.00   9.80  1.973  1.973  0.000  1.973  0.000   12.0    0.0   12.0    0.0
 2001 237     5  15.50  22.10   7.20  3.453  3.223  0.000  3.223  0.000   15.2    0.0   15.2    0.0
 2001 238     6  11.20  28.30  14.30  2.858  2.858  0.000  2.858  0.000   18.1    0.0   18.1    0.0
 2001 239     7  12.80  20.40   6.50  2.769  2.769  0.000  2.769  0.000   20.9    0.0   20.9    0.0
 2001 240     8  14.10  16.00   4.80  2.819  1.841  0.000  1.841  0.000   22.7    0.0   22.7    0.0
 2001 241     9  18.30  23.20   8.30  4.176  2.328  0.000  2.328  0.000   25.0    0.0   25.0    0.0
 2001 242    10  16.60  25.40  13.30  4.060  2.518  0.000  2.518  0.000   27.5    0.0   27.5    0.0
 2001 243    11   6.40  22.00  17.40  1.553  1.553  0.000  1.553  0.000   29.1    0.0   29.1    0.0
 2001 244    12   5.50  19.00  16.30  1.274  1.274  0.000  1.274  0.000   30.4    0.0   30.4    0.0
 2001 245    13   5.50  16.30  13.50  1.198  1.198  0.003  1.195  0.000   31.6    0.0   31.6    0.0
 2001 246    14   5.60  15.20  13.20  1.199  1.199  0.003  1.195  0.000   32.8    0.0   32.8    0.0
 2001 247    15   5.60  13.60  10.00  1.137  1.137  0.003  1.133  0.000   33.9    0.0   33.9    0.0
 2001 248    16   9.10  16.00   9.20  1.897  1.897  0.006  1.892  0.000   35.8    0.0   35.8    0.0
 2001 249    17   8.40  18.10  10.60  1.827  1.827  0.006  1.821  0.000   37.6    0.0   37.6    0.0
 2001 250    18   5.80  17.30  14.30  1.290  1.290  0.004  1.286  0.000   38.9    0.0   38.9    0.0
 2001 251    19  20.50  18.10   9.20  4.401  4.401  0.015  4.386  0.000   43.3    0.0   43.3    0.0
 2001 252    20  10.00  15.90   7.10  2.040  1.363  0.012  1.351  0.000   44.7    0.1   44.6    0.0
 2001 253    21  19.60  17.20   5.40  4.008  2.649  0.025  2.624  0.000   47.3    0.1   47.3    0.0
 2001 254    22  20.90  17.00   5.70  4.274  1.435  0.027  1.408  0.000   48.8    0.1   48.7    0.0
 2001 255    23  16.10  19.70   3.80  3.361  2.422  0.022  2.400  0.000   51.2    0.1   51.1    0.0
 2001 256    24  15.70  21.30   7.70  3.472  1.234  0.024  1.211  0.000   52.4    0.2   52.3    0.0
 2001 257    25  12.60  15.70   7.20  2.565  1.012  0.018  0.994  0.000   53.4    0.2   53.3    0.0
 2001 258    26  16.70  13.90   5.20  3.245  1.304  0.024  1.280  0.000   54.7    0.2   54.6    0.0
 2001 259    27  14.40  12.00   5.00  2.712  0.922  0.020  0.902  0.000   55.7    0.2   55.5    0.0
 2001 260    28  19.40  16.20   2.90  3.814  0.830  0.029  0.802  0.000   56.5    0.2   56.3    0.0
 2001 261    29  21.10  22.50   6.20  4.678  0.764  0.036  0.729  0.000   57.3    0.3   57.0    0.0
 2001 262    30  16.10  23.20  10.00  3.724  0.702  0.030  0.673  0.000   58.0    0.3   57.7    0.0
 2001 263    31  21.70  25.50  11.80  5.243  0.672  0.044  0.628  0.000   58.6    0.3   58.3    0.0
 2001 264    32  10.90  25.00  14.50  2.675  0.615  0.024  0.591  0.000   59.2    0.4   58.9    0.0
 2001 265    33  15.90  25.80  12.80  3.886  0.596  0.037  0.560  0.000   59.8    0.4   59.4    0.0
 2001 266    34  13.40  23.50  14.50  3.228  0.569  0.036  0.533  0.000   60.4    0.4   60.0    0.0
 2001 267    35  11.90  26.40  16.70  3.020  3.020  0.024  2.996  0.000   63.4    0.5   63.0    0.0
 2001 268    36   6.60  19.30  11.20  1.464  1.464  0.013  1.451  0.000   64.9    0.5   64.4    0.0
 2001 269    37   9.90  17.50  10.40  2.128  1.576  0.034  1.542  0.000   66.5    0.5   66.0    0.0
 2001 270    38   6.70  15.30   9.80  1.389  1.389  0.015  1.374  0.000   67.9    0.5   67.3    0.0
 2001 271    39   6.90  21.00  13.60  1.598  1.598  0.018  1.580  0.000   69.5    0.5   68.9    0.0
 2001 272    40  12.00  21.30  16.00  2.845  2.845  0.034  2.811  0.000   72.3    0.6   71.7    0.0
 2001 273    41   6.90  19.10  16.20  1.593  1.593  0.022  1.571  0.000   73.9    0.6   73.3    0.0
 2001 274    42   6.90  19.00  16.30  1.592  1.592  0.024  1.568  0.000   75.5    0.6   74.9    0.0
 2001 275    43   8.10  17.80  14.00  1.803  1.803  0.030  1.773  0.000   77.3    0.7   76.6    0.0
 2001 276    44   7.90  19.60  13.30  1.789  1.789  0.032  1.757  0.000   79.1    0.7   78.4    0.0
 2001 277    45  13.20  21.20  14.20  3.074  3.074  0.059  3.015  0.000   82.2    0.8   81.4    0.0
 2001 278    46  19.20  19.60  13.40  4.349  3.893  0.144  3.749  0.000   86.0    0.9   85.2    0.0
 2001 279    47  17.00  20.20  13.50  3.882  2.959  0.141  2.818  0.000   89.0    1.0   88.0    0.0
 2001 280    48   7.20  19.30  14.80  1.643  1.643  0.041  1.602  0.000   90.7    1.1   89.6    0.0
 2001 281    49  11.90  19.30  14.30  2.702  2.702  0.074  2.628  0.000   93.4    1.1   92.2    0.0
 2001 282    50  12.20  17.20  13.70  2.679  2.679  0.079  2.600  0.000   96.0    1.2   94.8    0.0
 2001 283    51  23.50  23.60  10.30  5.443  3.503  0.271  3.231  0.000   99.5    1.5   98.0    0.0
 2001 284    52  25.30  21.40  13.10  5.832  1.900  0.311  1.589  0.000  101.4    1.8   99.6    0.0
 2001 285    53  13.60  20.60  12.60  3.088  1.346  0.176  1.170  0.000  102.8    2.0  100.8    0.0
 2001 286    54  21.10  23.30  10.90  4.885  1.272  0.301  0.971  0.000  104.1    2.3  101.8    0.0
 2001 287    55  20.40  24.20  13.50  4.877  1.172  0.324  0.849  0.000  105.2    2.6  102.6    0.0
 2001 288    56   7.50  20.20  16.60  1.749  1.749  0.080  1.669  0.000  107.0    2.7  104.3    0.0
 2001 289    57  10.10  22.60  16.60  2.425  2.425  0.120  2.305  0.000  109.4    2.8  106.6    0.0
 2001 290    58  16.10  24.00  15.50  3.893  3.893  0.208  3.686  0.000  113.3    3.0  110.3    0.0
 2001 291    59  15.50  27.30  15.50  3.891  3.487  0.371  3.117  0.000  116.8    3.4  113.4    0.0
 2001 292    60  21.10  26.40  16.20  5.258  3.367  0.578  2.789  0.000  120.1    4.0  116.2    0.0
 2001 293    61  19.90  27.60  15.00  4.970  4.808  0.631  4.177  0.000  125.0    4.6  120.4    0.0
 2001 294    62  23.00  19.10  10.70  4.971  3.701  0.723  2.978  0.000  128.7    5.3  123.3    0.0
 2001 295    63  27.50  19.10   8.50  5.819  2.334  0.897  1.436  0.000  131.0    6.2  124.8    0.0
 2001 296    64  26.40  23.00   7.20  5.811  2.050  0.943  1.107  0.000  133.0    7.2  125.9    0.0
 2001 297    65  25.80  26.90  10.50  6.122  2.004  1.069  0.934  0.000  135.0    8.2  126.8    0.0
 2001 298    66  26.30  32.40  14.30  6.831  2.150  1.327  0.824  0.000  137.2    9.6  127.6    0.0
 2001 299    67   8.90  22.60  18.90  2.131  2.131  0.326  1.805  0.000  139.3    9.9  129.4    0.0
 2001 300    68   8.00  20.60  18.50  1.856  1.856  0.323  1.533  0.000  141.2   10.2  131.0    0.0
 2001 301    69   8.00  23.40  18.40  1.912  1.912  0.369  1.543  0.000  143.1   10.6  132.5    0.0
 2001 302    70   8.20  23.80  18.00  1.955  1.955  0.423  1.532  0.000  145.0   11.0  134.0    0.0
 2001 303    71  26.70  21.50  13.80  5.956  5.956  1.452  4.504  0.000  151.0   12.5  138.6    0.0
 2001 304    72  28.60  22.20  12.00  6.321  5.635  2.171  3.464  0.000  156.6   14.6  142.0    0.0
 2001 305    73  28.70  24.00  10.40  6.383  3.769  2.319  1.450  0.000  160.4   16.9  143.5    0.0
 2001 306    74  24.30  21.70  11.20  5.268  3.136  2.023  1.112  0.000  163.5   19.0  144.6    0.0
 2001 307    75  28.70  22.50  10.20  6.216  3.436  2.498  0.938  0.000  167.0   21.5  145.5    0.0
 2001 308    76  28.60  23.80  11.30  6.339  3.489  2.662  0.826  0.000  170.5   24.1  146.3    0.0
 2001 309    77  26.20  28.70  12.30  6.193  3.478  2.731  0.747  0.000  173.9   26.9  147.1    0.0
 2001 310    78  11.90  26.60  16.90  2.834  2.834  1.096  1.738  0.000  176.8   28.0  148.8    0.0
 2001 311    79   8.40  17.80  15.00  1.760  1.760  0.733  1.028  0.000  178.5   28.7  149.9    0.0
 2001 312    80  18.80  21.70  13.40  4.080  4.080  1.749  2.331  0.000  182.6   30.4  152.2    0.0
 2001 313    81  20.10  24.10  12.30  4.443  4.443  1.783  2.660  0.000  187.1   32.2  154.8    0.0
 2001 314    82  10.60  25.30  17.10  2.465  2.465  1.017  1.448  0.000  189.5   33.2  156.3    0.0
 2001 315    83  29.80  25.80  13.00  6.727  6.727  2.878  3.848  0.000  196.3   36.1  160.1    0.0
 2001 316    84  28.10  27.90  14.10  6.543  6.225  3.749  2.476  0.000  202.5   39.9  162.6    0.0
 2001 317    85  10.20  24.00  15.50  2.287  2.287  1.039  1.247  0.000  204.8   40.9  163.9    0.0
 2001 318    86  20.50  24.30  16.80  4.650  4.420  2.818  1.603  0.000  209.2   43.7  165.5    0.0
 2001 319    87  28.90  25.00  13.70  6.433  5.173  3.998  1.176  0.000  214.4   47.7  166.6    0.0
 2001 320    88  26.60  20.00  11.50  5.446  4.430  3.456  0.974  0.000  218.8   51.2  167.6    0.0
 2001 321    89  29.50  24.50   8.00  6.209  4.814  3.964  0.851  0.000  223.6   55.1  168.5    0.0
 2001 322    90  29.80  29.00  11.50  6.815  5.150  4.385  0.765  0.000  228.8   59.5  169.2    0.0
 2001 323    91  23.20  30.00  14.50  5.488  4.267  3.566  0.701  0.000  233.0   63.1  169.9    0.0
 2001 324    92  29.70  32.60  15.10  7.254  5.433  4.782  0.651  0.000  238.5   67.9  170.6    0.0
 2001 325    93  14.10  26.80  19.60  3.335  2.827  2.217  0.610  0.000  241.3   70.1  171.2    0.0
 2001 326    94  23.20  29.60  17.40  5.565  4.314  3.738  0.576  0.000  245.6   73.8  171.8    0.0
 2001 327    95  27.40  33.30  18.50  6.891  5.222  4.675  0.547  0.000  250.8   78.5  172.3    0.0
 2001 328    96   8.80  20.20  13.00  1.817  1.817  0.962  0.854  0.000  252.6   79.5  173.2    0.0
 2001 329    97  15.40  19.30  10.10  3.062  3.062  1.622  1.440  0.000  255.7   81.1  174.6    0.0
 2001 330    98   8.80  20.30  16.00  1.866  1.866  0.989  0.876  0.000  257.6   82.1  175.5    0.0
 2001 331    99  29.20  24.80  15.60  6.522  6.522  3.455  3.068  0.000  264.1   85.5  178.6    0.0
 2001 332   100  30.90  23.60  12.10  6.608  6.608  3.928  2.680  0.000  270.7   89.5  181.2    0.0
 2001 333   101  26.10  23.00  12.00  5.534  5.534  2.949  2.584  0.000  276.2   92.4  183.8    0.0
 2001 334   102   8.90  17.20  12.80  1.761  1.761  0.941  0.821  0.000  278.0   93.3  184.6    0.0
 2001 335   103  29.70  24.20  12.40  6.414  6.414  3.414  3.000  0.000  284.4   96.8  187.6    0.0
 2001 336   104  28.20  25.30  12.80  6.192  6.192  4.219  1.974  0.000  290.6  101.0  189.6    0.0
 2001 337   105  10.70  20.70  13.90  2.239  2.239  1.194  1.045  0.000  292.8  102.2  190.7    0.0
 2001 338   106  10.30  22.30  14.00  2.202  2.202  1.171  1.030  0.000  295.0  103.3  191.7    0.0
 2001 339   107  15.30  22.60  16.60  3.354  3.354  1.780  1.574  0.000  298.4  105.1  193.3    0.0
 2001 340   108  21.60  24.90  15.40  4.822  4.611  3.303  1.308  0.000  303.0  108.4  194.6    0.0
 2001 341   109  26.00  28.30  14.60  6.005  5.154  4.109  1.046  0.000  308.2  112.5  195.6    0.0
 2001 342   110  28.40  18.90  11.50  5.689  4.785  3.888  0.897  0.000  312.9  116.4  196.5    0.0
 2001 343   111  30.30  21.50   5.40  5.952  4.858  4.060  0.798  0.000  317.8  120.5  197.3    0.0
 2001 344   112  28.80  24.60  11.00  6.185  4.937  4.212  0.726  0.000  322.7  124.7  198.0    0.0
 2001 345   113  23.40  25.00  10.50  5.030  4.089  3.418  0.670  0.000  326.8  128.1  198.7    0.0
 2001 346   114  19.60  29.20  15.40  4.606  3.748  3.122  0.626  0.000  330.6  131.2  199.3    0.0
 2001 347   115  19.30  28.10  19.20  4.611  3.704  3.115  0.589  0.000  334.3  134.4  199.9    0.0
 2001 348   116  22.70  26.80  19.10  5.342  5.342  2.780  2.563  0.000  339.6  137.1  202.5    0.0
 2001 349   117  27.00  25.80  16.00  6.135  6.135  3.181  2.954  0.000  345.7  140.3  205.4    0.0
 2001 350   118  24.50  25.70  13.80  5.466  5.434  3.654  1.779  0.000  351.2  144.0  207.2    0.0
 2001 351   119  30.80  28.30  12.90  7.039  7.039  4.603  2.436  0.000  358.2  148.6  209.7    0.0
 2001 352   120  30.70  27.80  13.70  7.022  6.043  4.659  1.384  0.000  364.3  153.2  211.0    0.0
 2001 353   121  18.50  30.00  15.90  4.415  4.002  2.920  1.083  0.000  368.3  156.1  212.1    0.0
 2001 354   122  16.80  31.00  18.70  4.140  3.646  2.727  0.920  0.000  371.9  158.9  213.0    0.0
 2001 355   123   9.10  20.40  15.70  1.935  1.935  0.979  0.957  0.000  373.9  159.9  214.0    0.0
 2001 356   124  28.40  24.30  16.10  6.361  6.361  3.203  3.157  0.000  380.2  163.1  217.2    0.0
 2001 357   125  31.00  26.80  10.40  6.837  6.837  4.038  2.800  0.000  387.0  167.1  220.0    0.0
 2001 358   126  29.70  27.10  13.30  6.731  6.731  4.028  2.703  0.000  393.8  171.1  222.7    0.0
 2001 359   127  31.60  28.30  13.70  7.290  6.119  4.703  1.416  0.000  399.9  175.8  224.1    0.0
 2001 360   128  31.40  30.40  14.50  7.469  5.895  4.798  1.097  0.000  405.8  180.6  225.2    0.0
 2001 361   129  30.20  31.60  17.50  7.447  5.690  4.761  0.929  0.000  411.5  185.4  226.1    0.0
 2001 362   130  28.50  31.00  16.80  6.949  5.241  4.421  0.820  0.000  416.7  189.8  226.9    0.0
 2001 363   131  26.60  30.00  18.60  6.504  6.504  3.169  3.335  0.000  423.2  193.0  230.3    0.0
 2001 364   132  25.90  31.40  18.80  6.443  6.443  3.122  3.320  0.000  429.7  196.1  233.6    0.0
 2001 365   133  19.00  31.30  18.90  4.727  4.727  2.278  2.449  0.000  434.4  198.4  236.0    0.0
 2002 001   134  30.50  28.40  16.80  7.238  6.862  4.508  2.354  0.000  441.3  202.9  238.4    0.0
 2002 002   135  27.00  28.20  17.60  6.435  5.957  3.986  1.970  0.000  447.2  206.9  240.3    0.0
 2002 003   136  30.90  27.40  16.70  7.251  5.759  4.467  1.292  0.000  453.0  211.3  241.6    0.0
 2002 004   137  25.70  28.00  15.90  6.039  4.737  3.699  1.037  0.000  457.7  215.0  242.7    0.0
 2002 005   138   9.10  21.90  18.90  2.038  2.038  0.955  1.083  0.000  459.8  216.0  243.8    0.0
 2002 006   139  18.10  24.80  17.90  4.166  4.166  1.941  2.225  0.000  463.9  217.9  246.0    0.0
 2002 007   140  29.60  23.80  13.70  6.512  6.512  3.017  3.495  0.000  470.4  220.9  249.5    0.0
 2002 008   141  31.30  28.60  11.80  7.189  6.745  4.307  2.438  0.000  477.2  225.3  251.9    0.0
 2002 009   142  27.00  27.20  15.70  6.292  5.703  3.749  1.954  0.000  482.9  229.0  253.9    0.0
 2002 010   143  28.40  29.10  15.70  6.768  5.296  4.008  1.288  0.000  488.2  233.0  255.2    0.0
 2002 011   144  25.50  30.40  18.30  6.290  4.738  3.703  1.035  0.000  492.9  236.7  256.2    0.0
 2002 012   145  30.40  32.30  18.60  7.676  5.380  4.490  0.890  0.000  498.3  241.2  257.1    0.0
 2002 013   146  27.80  32.60  19.80  7.107  7.107  3.177  3.930  0.000  505.4  244.4  261.0    0.0
 2002 014   147  12.90  23.70  14.90  2.873  2.873  1.276  1.597  0.000  508.3  245.7  262.6    0.0
 2002 015   148  29.40  23.30  11.00  6.312  6.312  2.808  3.504  0.000  514.6  248.5  266.1    0.0
 2002 016   149  29.90  24.00  11.30  6.495  6.495  3.026  3.469  0.000  521.1  251.5  269.6    0.0
 2002 017   150  25.10  25.60  12.20  5.605  4.630  3.181  1.450  0.000  525.7  254.7  271.0    0.0
 2002 018   151  29.50  24.90  13.20  6.589  4.829  3.717  1.112  0.000  530.5  258.4  272.1    0.0
 2002 019   152  30.50  28.70  13.40  7.142  4.943  4.005  0.938  0.000  535.5  262.4  273.1    0.0
 2002 020   153  25.20  34.50  17.40  6.486  6.014  3.614  2.400  0.000  541.5  266.0  275.5    0.0
 2002 021   154  18.90  29.00  20.00  4.673  3.482  2.587  0.895  0.000  545.0  268.6  276.4    0.0
 2002 022   155  27.50  32.30  19.30  7.097  4.154  3.358  0.796  0.000  549.1  272.0  277.2    0.0
 2002 023   156  25.00  33.00  17.30  6.479  6.479  2.027  4.452  0.000  555.6  274.0  281.6    0.0
 2002 024   157  13.50  29.40  19.60  3.455  3.455  0.859  2.596  0.000  559.1  274.8  284.2    0.0
 2002 025   158  26.00  29.30  19.30  6.689  6.423  1.842  4.581  0.000  565.5  276.7  288.8    0.0
 2002 026   159  12.60  25.80  18.80  3.127  3.127  0.612  2.516  0.000  568.6  277.3  291.3    0.0
 2002 027   160  17.30  26.60  19.80  4.393  3.240  0.812  2.428  0.000  571.9  278.1  293.8    0.0
 2002 028   161  29.90  31.20  16.40  7.834  3.151  1.179  1.972  0.000  575.0  279.3  295.7    0.0
 2002 029   162  29.70  33.10  16.30  7.972  2.266  0.973  1.293  0.000  577.3  280.3  297.0    0.0
 2002 030   163  27.50  30.90  18.00  7.322  7.236  0.724  6.512  0.000  584.5  281.0  303.5    0.0
 2002 031   164  20.90  27.70  19.10  5.429  3.459  0.434  3.025  0.000  588.0  281.4  306.6    0.0
 2002 032   165  29.80  25.40  16.60  7.412  1.917  0.478  1.439  0.000  589.9  281.9  308.0    0.0

*DSSAT Cropping System Model Ver. 4.0.2.000               Aug 23, 2016; 16:35:33

*RUN   4        : UYSB                    
 MODEL          : CRGRO040 - Soybean         
 EXPERIMENT     : UYSB0221 SB    late to create DSS                             
 TREATMENT  1   : UYSB                    

@YEAR DOY   DAS   SRAA   TMXA   TMNA   EOAA   ETAA   EPAA   ESAA   EFAD   ETAC   EPAC   ESAC   EFAC
 2002 232     0   5.00  13.00   9.60  1.003  1.003  0.000  1.003  0.000    1.0    0.0    1.0    0.0
 2002 233     1  16.60  17.40   7.70  3.483  2.404  0.000  2.404  0.000    3.4    0.0    3.4    0.0
 2002 234     2  18.10  17.60   4.30  3.687  2.238  0.000  2.238  0.000    5.6    0.0    5.6    0.0
 2002 235     3   9.50  21.20  13.00  2.200  2.200  0.000  2.200  0.000    7.8    0.0    7.8    0.0
 2002 236     4  15.40  28.00  15.40  3.949  3.889  0.000  3.889  0.000   11.7    0.0   11.7    0.0
 2002 237     5  16.60  32.00  17.90  4.535  3.412  0.000  3.412  0.000   15.1    0.0   15.1    0.0
 2002 238     6  18.10  32.00  20.20  5.027  1.449  0.000  1.449  0.000   16.6    0.0   16.6    0.0
 2002 239     7  18.10  27.00  18.00  4.680  1.112  0.000  1.112  0.000   17.7    0.0   17.7    0.0
 2002 240     8  14.80  28.20  16.20  3.827  3.827  0.000  3.827  0.000   21.5    0.0   21.5    0.0
 2002 241     9   9.00  18.00  10.30  1.951  1.951  0.000  1.951  0.000   23.5    0.0   23.5    0.0
 2002 242    10  18.40  14.30   6.40  3.645  3.076  0.000  3.076  0.000   26.6    0.0   26.6    0.0
 2002 243    11  16.00  12.00   4.10  2.986  2.761  0.012  2.749  0.000   29.3    0.0   29.3    0.0
 2002 244    12  12.50  10.50   2.90  2.248  1.429  0.009  1.420  0.000   30.8    0.0   30.7    0.0
 2002 245    13  18.70  13.70   0.30  3.444  1.113  0.014  1.099  0.000   31.9    0.0   31.8    0.0
 2002 246    14  17.30  16.20   3.10  3.409  0.944  0.014  0.930  0.000   32.8    0.1   32.8    0.0
 2002 247    15  19.60  20.30   4.20  4.143  0.839  0.018  0.821  0.000   33.6    0.1   33.6    0.0
 2002 248    16  16.90  23.00   7.00  3.800  1.618  0.018  1.600  0.000   35.3    0.1   35.2    0.0
 2002 249    17   5.70  16.70   6.70  1.172  1.172  0.004  1.169  0.000   36.4    0.1   36.3    0.0
 2002 250    18  16.80  15.40   4.80  3.327  2.242  0.017  2.224  0.000   38.7    0.1   38.6    0.0
 2002 251    19  19.00  16.10   4.20  3.779  1.369  0.020  1.349  0.000   40.0    0.1   39.9    0.0
 2002 252    20  19.20  19.00   7.00  4.090  1.088  0.022  1.066  0.000   41.1    0.1   41.0    0.0
 2002 253    21   5.90  18.20   9.50  1.272  1.272  0.004  1.267  0.000   42.4    0.2   42.3    0.0
 2002 254    22   6.00  17.10  15.50  1.345  1.345  0.005  1.340  0.000   43.8    0.2   43.6    0.0
 2002 255    23  18.60  17.40   9.90  3.980  3.980  0.016  3.964  0.000   47.7    0.2   47.6    0.0
 2002 256    24  20.70  18.20   6.90  4.356  2.910  0.029  2.881  0.000   50.6    0.2   50.4    0.0
 2002 257    25  20.40  18.40   7.50  4.329  1.971  0.030  1.941  0.000   52.6    0.2   52.4    0.0
 2002 258    26  14.90  17.10   9.00  3.148  1.307  0.022  1.284  0.000   53.9    0.3   53.7    0.0
 2002 259    27   9.30  18.00  10.20  2.012  1.615  0.015  1.600  0.000   55.5    0.3   55.3    0.0
 2002 260    28   6.30  19.20  15.00  1.445  1.112  0.011  1.101  0.000   56.6    0.3   56.4    0.0
 2002 261    29   6.90  19.10  13.80  1.564  1.564  0.008  1.556  0.000   58.2    0.3   57.9    0.0
 2002 262    30   8.70  20.20   7.50  1.892  1.892  0.010  1.882  0.000   60.1    0.3   59.8    0.0
 2002 263    31  20.70  15.70   5.20  4.132  4.132  0.023  4.109  0.000   64.2    0.3   63.9    0.0
 2002 264    32  21.00  17.70   5.50  4.328  2.625  0.039  2.586  0.000   66.9    0.4   66.5    0.0
 2002 265    33  19.50  21.80   6.00  4.275  1.809  0.039  1.769  0.000   68.7    0.4   68.3    0.0
 2002 266    34  21.90  19.10   8.10  4.716  1.281  0.047  1.234  0.000   69.9    0.4   69.5    0.0
 2002 267    35  22.20  21.10   5.40  4.793  1.059  0.052  1.007  0.000   71.0    0.5   70.5    0.0
 2002 268    36  22.90  25.10   9.20  5.386  0.935  0.063  0.872  0.000   71.9    0.6   71.4    0.0
 2002 269    37  22.00  25.00   7.80  5.106  0.847  0.067  0.780  0.000   72.8    0.6   72.2    0.0
 2002 270    38  22.10  26.40  10.00  5.315  0.789  0.077  0.713  0.000   73.6    0.7   72.9    0.0
 2002 271    39  18.10  29.40  14.60  4.677  0.735  0.075  0.660  0.000   74.3    0.8   73.5    0.0
 2002 272    40   6.80  17.40  15.50  1.527  1.527  0.017  1.510  0.000   75.8    0.8   75.0    0.0
 2002 273    41  15.40  20.40  13.20  3.525  3.525  0.043  3.482  0.000   79.4    0.8   78.5    0.0
 2002 274    42  18.00  21.60  10.30  4.080  2.907  0.089  2.818  0.000   82.3    0.9   81.3    0.0
 2002 275    43  15.10  24.60  12.70  3.627  3.627  0.054  3.573  0.000   85.9    1.0   84.9    0.0
 2002 276    44  22.90  23.00  15.10  5.498  4.361  0.146  4.215  0.000   90.3    1.1   89.1    0.0
 2002 277    45  14.70  25.90  12.50  3.578  2.247  0.104  2.142  0.000   92.5    1.2   91.3    0.0
 2002 278    46  14.90  23.70  18.50  3.705  1.451  0.118  1.333  0.000   94.0    1.4   92.6    0.0
 2002 279    47  14.10  28.70  17.60  3.686  3.686  0.083  3.604  0.000   97.6    1.4   96.2    0.0
 2002 280    48   7.90  21.20  12.30  1.807  1.807  0.047  1.760  0.000   99.5    1.5   98.0    0.0
 2002 281    49   7.20  21.00  15.20  1.683  1.683  0.048  1.635  0.000  101.1    1.5   99.6    0.0
 2002 282    50   7.30  19.10  18.00  1.705  1.705  0.053  1.652  0.000  102.8    1.6  101.3    0.0
 2002 283    51   7.30  19.50  17.60  1.706  1.706  0.057  1.649  0.000  104.5    1.6  102.9    0.0
 2002 284    52   9.20  23.50  17.60  2.257  2.257  0.082  2.176  0.000  106.8    1.7  105.1    0.0
 2002 285    53  20.90  29.00  17.90  5.473  4.370  0.349  4.021  0.000  111.2    2.1  109.1    0.0
 2002 286    54  25.10  30.10  19.80  6.739  2.592  0.481  2.111  0.000  113.8    2.6  111.2    0.0
 2002 287    55  24.30  31.10  20.10  6.602  1.851  0.525  1.326  0.000  115.6    3.1  112.5    0.0
 2002 288    56   8.50  30.20  21.70  2.311  2.311  0.131  2.180  0.000  117.9    3.2  114.7    0.0
 2002 289    57  10.20  20.80  12.80  2.311  2.311  0.152  2.159  0.000  120.2    3.4  116.9    0.0
 2002 290    58  25.70  21.70   9.90  5.738  4.490  0.628  3.862  0.000  124.7    4.0  120.7    0.0
 2002 291    59  24.20  25.70  12.40  5.796  2.618  0.684  1.933  0.000  127.3    4.7  122.7    0.0
 2002 292    60   8.20  24.30  18.90  2.029  2.029  0.177  1.852  0.000  129.4    4.8  124.5    0.0
 2002 293    61   8.30  25.60  13.80  1.998  1.998  0.200  1.798  0.000  131.4    5.0  126.3    0.0
 2002 294    62  20.50  13.00   7.00  3.909  3.674  0.651  3.023  0.000  135.0    5.7  129.3    0.0
 2002 295    63  25.00  18.90   5.00  5.095  3.755  0.864  2.891  0.000  138.8    6.6  132.2    0.0
 2002 296    64  23.30  23.00   7.00  5.109  2.334  0.902  1.431  0.000  141.1    7.5  133.7    0.0
 2002 297    65  24.20  26.20  16.70  5.970  2.234  1.130  1.104  0.000  143.4    8.6  134.8    0.0
 2002 298    66  11.90  22.60  15.80  2.781  1.532  0.599  0.933  0.000  144.9    9.2  135.7    0.0
 2002 299    67  24.00  27.70  16.80  5.985  5.985  1.000  4.985  0.000  150.9   10.2  140.7    0.0
 2002 300    68   8.30  24.70  18.90  2.024  1.925  0.532  1.393  0.000  152.8   10.7  142.1    0.0
 2002 301    69  18.00  26.90  17.80  4.452  4.452  0.909  3.543  0.000  157.3   11.6  145.6    0.0
 2002 302    70  12.70  18.20  11.60  2.667  2.667  0.610  2.058  0.000  159.9   12.2  147.7    0.0
 2002 303    71   8.90  19.90   9.90  1.880  1.624  0.606  1.019  0.000  161.6   12.9  148.7    0.0
 2002 304    72  26.60  23.10  12.10  5.963  4.902  1.966  2.935  0.000  166.5   14.8  151.6    0.0
 2002 305    73  25.60  23.20  12.40  5.745  3.432  1.998  1.434  0.000  169.9   16.8  153.1    0.0
 2002 306    74  22.10  25.30  15.10  5.187  3.011  1.905  1.105  0.000  172.9   18.7  154.2    0.0
 2002 307    75   8.20  17.40  13.70  1.715  1.715  0.526  1.189  0.000  174.6   19.2  155.4    0.0
 2002 308    76  15.80  16.00  10.50  3.144  3.144  0.992  2.152  0.000  177.8   20.2  157.5    0.0
 2002 309    77  28.00  19.20   7.40  5.654  5.654  2.295  3.360  0.000  183.4   22.5  160.9    0.0
 2002 310    78  28.10  21.60   8.90  5.931  5.358  2.489  2.869  0.000  188.8   25.0  163.7    0.0
 2002 311    79  25.70  26.00  12.20  5.885  3.976  2.547  1.430  0.000  192.7   27.6  165.2    0.0
 2002 312    80  26.10  28.20  14.70  6.237  3.933  2.830  1.103  0.000  196.7   30.4  166.3    0.0
 2002 313    81  10.40  20.60  16.30  2.290  2.290  0.909  1.381  0.000  199.0   31.3  167.7    0.0
 2002 314    82  19.20  17.70  10.80  3.869  3.869  1.614  2.255  0.000  202.8   32.9  169.9    0.0
 2002 315    83   8.50  22.80  12.30  1.853  1.853  0.791  1.062  0.000  204.7   33.7  171.0    0.0
 2002 316    84  28.80  27.40   9.90  6.506  6.209  3.335  2.875  0.000  210.9   37.0  173.9    0.0
 2002 317    85  28.90  30.40  12.80  6.903  5.912  3.648  2.265  0.000  216.8   40.7  176.1    0.0
 2002 318    86  22.00  30.00  17.30  5.397  5.397  2.677  2.720  0.000  222.2   43.4  178.8    0.0
 2002 319    87  15.70  24.90  19.50  3.686  3.638  2.081  1.556  0.000  225.9   45.5  180.4    0.0
 2002 320    88  29.00  30.40  18.00  7.145  5.314  4.157  1.157  0.000  231.2   49.6  181.6    0.0
 2002 321    89  10.30  27.60  20.30  2.497  2.451  1.487  0.964  0.000  233.6   51.1  182.5    0.0
 2002 322    90  28.70  28.60  19.20  6.968  5.063  4.219  0.844  0.000  238.7   55.3  183.4    0.0
 2002 323    91  18.70  27.70  15.30  4.359  4.359  2.051  2.308  0.000  243.0   57.4  185.7    0.0
 2002 324    92   9.40  24.40  18.80  2.164  2.164  1.033  1.131  0.000  245.2   58.4  186.8    0.0
 2002 325    93  22.30  24.00  15.20  4.961  4.961  2.389  2.572  0.000  250.2   60.8  189.4    0.0
 2002 326    94  29.70  24.60  11.50  6.455  6.455  3.537  2.918  0.000  256.6   64.3  192.3    0.0
 2002 327    95  28.80  31.00  15.10  6.940  6.940  4.006  2.934  0.000  263.6   68.3  195.2    0.0
 2002 328    96  18.70  29.00  22.10  4.637  4.637  2.272  2.365  0.000  268.2   70.6  197.6    0.0
 2002 329    97   9.70  24.60  19.00  2.235  2.235  1.102  1.133  0.000  270.4   71.7  198.7    0.0
 2002 330    98  24.00  28.30  18.50  5.747  5.747  2.837  2.909  0.000  276.2   74.5  201.6    0.0
 2002 331    99  13.80  29.30  18.60  3.343  3.343  1.657  1.685  0.000  279.5   76.2  203.3    0.0
 2002 332   100  10.40  19.00  14.80  2.160  2.153  1.392  0.762  0.000  281.7   77.6  204.1    0.0
 2002 333   101   8.90  23.60  16.90  1.992  1.992  0.986  1.006  0.000  283.7   78.6  205.1    0.0
 2002 334   102  22.90  28.70  19.40  5.545  5.545  2.736  2.809  0.000  289.2   81.3  207.9    0.0
 2002 335   103   9.00  20.00  16.80  1.927  1.927  0.950  0.976  0.000  291.1   82.3  208.9    0.0
 2002 336   104  29.00  24.10  14.40  6.405  6.405  3.148  3.257  0.000  297.5   85.4  212.1    0.0
 2002 337   105  21.40  26.60  14.90  4.891  4.891  2.401  2.490  0.000  302.4   87.8  214.6    0.0
 2002 338   106  10.30  21.00  17.80  2.253  2.253  1.104  1.149  0.000  304.7   88.9  215.8    0.0
 2002 339   107  17.30  27.80  19.90  4.167  4.167  2.034  2.133  0.000  308.9   91.0  217.9    0.0
 2002 340   108  10.20  25.80  19.80  2.401  2.401  1.168  1.233  0.000  311.3   92.1  219.1    0.0
 2002 341   109  15.10  24.60  15.10  3.379  3.379  1.637  1.742  0.000  314.6   93.8  220.9    0.0
 2002 342   110  27.20  22.60  11.50  5.766  5.763  3.616  2.147  0.000  320.4   97.4  223.0    0.0
 2002 343   111  28.00  25.00  15.70  6.330  6.330  3.866  2.464  0.000  326.7  101.2  225.5    0.0
 2002 344   112  13.50  22.90  16.10  2.986  2.907  1.862  1.045  0.000  329.6  103.1  226.5    0.0
 2002 345   113  30.40  27.60  18.60  7.249  7.249  4.429  2.819  0.000  336.9  107.5  229.3    0.0
 2002 346   114  24.20  25.80  16.90  5.580  4.882  3.456  1.426  0.000  341.8  111.0  230.8    0.0
 2002 347   115  17.90  25.00  17.00  4.094  3.627  2.525  1.102  0.000  345.4  113.5  231.9    0.0
 2002 348   116  21.70  29.10  18.80  5.276  4.171  3.240  0.931  0.000  349.6  116.8  232.8    0.0
 2002 349   117  20.90  29.60  19.80  5.149  3.969  3.147  0.822  0.000  353.5  119.9  233.6    0.0
 2002 350   118  29.60  27.90  19.30  7.133  5.082  4.339  0.744  0.000  358.6  124.2  234.4    0.0
 2002 351   119  26.00  26.40  17.00  6.055  4.350  3.665  0.684  0.000  363.0  127.9  235.1    0.0
 2002 352   120  31.90  27.90  13.60  7.366  7.366  3.413  3.953  0.000  370.3  131.3  239.0    0.0
 2002 353   121   9.10  21.20  15.70  1.971  1.971  0.909  1.062  0.000  372.3  132.2  240.1    0.0
 2002 354   122  22.80  25.00  16.20  5.197  5.197  2.387  2.810  0.000  377.5  134.6  242.9    0.0
 2002 355   123  30.80  27.10  14.00  7.076  7.076  3.919  3.157  0.000  384.6  138.5  246.0    0.0
 2002 356   124   9.50  28.90  18.60  2.309  2.309  1.051  1.258  0.000  386.9  139.6  247.3    0.0
 2002 357   125  12.60  18.30  11.60  2.542  2.542  1.150  1.392  0.000  389.4  140.7  248.7    0.0
 2002 358   126  26.70  23.20  11.60  5.744  5.744  2.587  3.157  0.000  395.2  143.3  251.8    0.0
 2002 359   127  31.60  27.20  12.20  7.178  6.635  4.181  2.455  0.000  401.8  147.5  254.3    0.0
 2002 360   128  31.80  30.10  15.60  7.673  6.354  4.448  1.906  0.000  408.2  152.0  256.2    0.0
 2002 361   129  31.40  34.00  17.60  8.027  5.901  4.626  1.275  0.000  414.1  156.6  257.5    0.0
 2002 362   130   9.10  27.20  21.40  2.222  2.222  1.194  1.028  0.000  416.3  157.8  258.5    0.0
 2002 363   131   9.10  28.60  20.90  2.250  2.167  1.281  0.886  0.000  418.4  159.1  259.4    0.0
 2002 364   132  15.10  28.20  18.70  3.658  3.658  1.593  2.065  0.000  422.1  160.6  261.5    0.0
 2002 365   133  10.80  24.70  18.20  2.505  2.299  1.407  0.892  0.000  424.4  162.1  262.4    0.0
 2003 001   134  18.80  26.10  18.40  4.442  3.273  2.479  0.794  0.000  427.7  164.5  263.1    0.0
 2003 002   135  22.70  26.10  17.50  5.329  3.677  2.954  0.723  0.000  431.4  167.5  263.9    0.0
 2003 003   136   9.90  25.10  17.50  2.298  1.934  1.265  0.668  0.000  433.3  168.7  264.5    0.0
 2003 004   137  30.40  29.60  18.40  7.485  4.718  4.094  0.624  0.000  438.0  172.8  265.2    0.0
 2003 005   138  28.70  31.30  16.40  7.099  4.444  3.856  0.588  0.000  442.4  176.7  265.8    0.0
 2003 006   139  30.90  27.20  16.50  7.307  4.500  3.942  0.557  0.000  446.9  180.6  266.3    0.0
 2003 007   140  31.30  29.70  14.70  7.517  4.560  4.029  0.531  0.000  451.5  184.7  266.8    0.0
 2003 008   141  29.90  30.60  14.80  7.263  7.263  2.988  4.275  0.000  458.8  187.7  271.1    0.0
 2003 009   142  25.30  30.00  19.80  6.338  6.338  2.592  3.746  0.000  465.1  190.3  274.9    0.0
 2003 010   143  11.60  27.80  20.80  2.859  2.859  1.162  1.697  0.000  468.0  191.4  276.6    0.0
 2003 011   144  23.60  30.00  17.60  5.823  5.638  3.043  2.595  0.000  473.6  194.5  279.2    0.0
 2003 012   145  31.30  29.90  16.10  7.633  6.389  3.964  2.426  0.000  480.0  198.4  281.6    0.0
 2003 013   146  30.70  29.50  13.30  7.299  5.151  3.768  1.383  0.000  485.1  202.2  283.0    0.0
 2003 014   147  30.50  31.20  16.20  7.558  4.963  3.881  1.082  0.000  490.1  206.1  284.0    0.0
 2003 015   148  27.20  31.70  18.70  6.905  4.445  3.526  0.919  0.000  494.6  209.6  285.0    0.0
 2003 016   149  27.70  31.80  20.20  7.119  4.428  3.614  0.814  0.000  499.0  213.2  285.8    0.0
 2003 017   150  27.30  33.70  19.90  7.147  4.346  3.608  0.738  0.000  503.3  216.8  286.5    0.0
 2003 018   151  28.50  27.70  17.10  6.848  4.118  3.438  0.680  0.000  507.4  220.3  287.2    0.0
 2003 019   152  25.60  31.90  14.90  6.416  6.416  2.187  4.229  0.000  513.9  222.4  291.4    0.0
 2003 020   153  20.40  27.80  19.70  5.114  4.770  1.826  2.944  0.000  518.6  224.3  294.4    0.0
 2003 021   154  28.40  30.00  17.50  7.243  4.666  2.148  2.518  0.000  523.3  226.4  296.9    0.0
 2003 022   155  15.60  30.50  20.00  4.106  3.884  1.004  2.880  0.000  527.2  227.4  299.8    0.0
 2003 023   156  27.70  26.60  17.60  6.902  3.001  1.381  1.620  0.000  530.2  228.8  301.4    0.0
 2003 024   157  29.20  27.90  11.50  7.082  2.337  1.155  1.182  0.000  532.5  230.0  302.6    0.0
 2003 025   158  26.50  29.70  16.40  6.846  1.884  0.906  0.978  0.000  534.4  230.9  303.5    0.0
 2003 026   159  29.30  30.10  14.90  7.547  1.662  0.809  0.853  0.000  536.1  231.7  304.4    0.0
 2003 027   160  26.80  30.20  14.00  6.884  1.363  0.596  0.767  0.000  537.4  232.3  305.2    0.0
 2003 028   161  29.30  31.80  15.80  7.786  1.246  0.544  0.702  0.000  538.7  232.8  305.9    0.0
 2003 029   162  28.40  32.00  18.30  7.717  1.086  0.435  0.652  0.000  539.8  233.2  306.5    0.0

*DSSAT Cropping System Model Ver. 4.0.2.000               Aug 23, 2016; 16:35:33

*RUN   5        : UYSB                    
 MODEL          : CRGRO040 - Soybean         
 EXPERIMENT     : UYSB0221 SB    late to create DSS                             
 TREATMENT  1   : UYSB                    

@YEAR DOY   DAS   SRAA   TMXA   TMNA   EOAA   ETAA   EPAA   ESAA   EFAD   ETAC   EPAC   ESAC   EFAC
 2003 232     0  16.40  27.00   6.90  3.882  2.705  0.000  2.705  0.000    2.7    0.0    2.7    0.0
 2003 233     1  14.70  31.20  14.30  3.877  3.155  0.000  3.155  0.000    5.9    0.0    5.9    0.0
 2003 234     2   5.20  13.70   6.40  1.021  1.021  0.000  1.021  0.000    6.9    0.0    6.9    0.0
 2003 235     3   5.10   8.70   6.70  0.929  0.929  0.000  0.929  0.000    7.8    0.0    7.8    0.0
 2003 236     4  14.10  12.10   3.20  2.612  2.612  0.000  2.612  0.000   10.4    0.0   10.4    0.0
 2003 237     5  10.20  10.90   0.70  1.803  1.803  0.000  1.803  0.000   12.2    0.0   12.2    0.0
 2003 238     6  13.60  12.80  -2.40  2.397  1.701  0.000  1.701  0.000   13.9    0.0   13.9    0.0
 2003 239     7  11.90   9.30   4.10  2.127  2.127  0.000  2.127  0.000   16.1    0.0   16.1    0.0
 2003 240     8  13.40  12.40   4.70  2.534  1.731  0.000  1.731  0.000   17.8    0.0   17.8    0.0
 2003 241     9  14.90  12.60   4.00  2.806  1.222  0.000  1.222  0.000   19.0    0.0   19.0    0.0
 2003 242    10  12.80  14.30   5.30  2.508  1.000  0.000  1.000  0.000   20.0    0.0   20.0    0.0
 2003 243    11  14.60  15.90   4.90  2.918  0.868  0.000  0.868  0.000   20.9    0.0   20.9    0.0
 2003 244    12  19.00  19.40   6.40  4.051  0.777  0.000  0.777  0.000   21.7    0.0   21.7    0.0
 2003 245    13  17.20  21.00   1.80  3.592  0.710  0.000  0.710  0.000   22.4    0.0   22.4    0.0
 2003 246    14  18.60  25.00   6.40  4.274  0.658  0.000  0.658  0.000   23.0    0.0   23.0    0.0
 2003 247    15   8.30  22.50  14.50  1.978  1.978  0.000  1.978  0.000   25.0    0.0   25.0    0.0
 2003 248    16  11.30  26.70  14.70  2.838  1.177  0.000  1.177  0.000   26.2    0.0   26.2    0.0
 2003 249    17  18.60  32.50  18.70  5.138  0.975  0.000  0.975  0.000   27.1    0.0   27.1    0.0
 2003 250    18   5.80  22.50  14.00  1.376  1.376  0.003  1.372  0.000   28.5    0.0   28.5    0.0
 2003 251    19   5.80  15.20   8.90  1.192  1.192  0.003  1.189  0.000   29.7    0.0   29.7    0.0
 2003 252    20  18.20  13.60   4.70  3.504  3.504  0.010  3.494  0.000   33.2    0.0   33.2    0.0
 2003 253    21  20.40  14.40   2.60  3.891  2.873  0.019  2.855  0.000   36.1    0.0   36.1    0.0
 2003 254    22  20.20  18.10   1.40  4.026  2.305  0.020  2.285  0.000   38.4    0.1   38.3    0.0
 2003 255    23  21.00  21.60   3.10  4.474  1.383  0.023  1.360  0.000   39.8    0.1   39.7    0.0
 2003 256    24  21.20  14.10   6.10  4.171  1.093  0.022  1.071  0.000   40.9    0.1   40.8    0.0
 2003 257    25  20.60  13.90   1.20  3.842  0.934  0.021  0.913  0.000   41.8    0.1   41.7    0.0
 2003 258    26  20.70  15.70   3.30  4.056  0.832  0.023  0.809  0.000   42.6    0.1   42.5    0.0
 2003 259    27  18.70  15.40   5.00  3.710  0.755  0.021  0.734  0.000   43.4    0.2   43.2    0.0
 2003 260    28  17.70  16.90   4.20  3.562  0.698  0.021  0.677  0.000   44.1    0.2   43.9    0.0
 2003 261    29  19.80  21.90   5.00  4.309  0.657  0.026  0.631  0.000   44.8    0.2   44.5    0.0
 2003 262    30   7.30  25.70  10.60  1.751  1.751  0.007  1.745  0.000   46.5    0.2   46.3    0.0
 2003 263    31  21.20  19.10   4.80  4.429  0.703  0.030  0.673  0.000   47.2    0.2   47.0    0.0
 2003 264    32  13.90  22.00   8.90  3.136  3.136  0.014  3.122  0.000   50.3    0.3   50.1    0.0
 2003 265    33  11.50  24.10  15.80  2.822  2.822  0.013  2.809  0.000   53.2    0.3   52.9    0.0
 2003 266    34   9.00  20.10  14.20  2.074  2.074  0.010  2.063  0.000   55.2    0.3   55.0    0.0
 2003 267    35  15.50  19.80  11.00  3.459  2.496  0.029  2.467  0.000   57.7    0.3   57.4    0.0
 2003 268    36  16.20  19.20   7.90  3.488  2.362  0.030  2.331  0.000   60.1    0.3   59.8    0.0
 2003 269    37  11.00  19.00   9.80  2.403  1.390  0.022  1.368  0.000   61.5    0.4   61.1    0.0
 2003 270    38  15.30  23.50  12.30  3.621  2.530  0.036  2.495  0.000   64.0    0.4   63.6    0.0
 2003 271    39  15.00  16.30   6.30  3.052  2.251  0.035  2.216  0.000   66.3    0.4   65.8    0.0
 2003 272    40  23.30  18.00   2.10  4.665  1.403  0.056  1.347  0.000   67.7    0.5   67.2    0.0
 2003 273    41  23.90  22.00   8.20  5.354  1.132  0.067  1.065  0.000   68.8    0.6   68.2    0.0
 2003 274    42  17.70  27.00  10.30  4.299  0.967  0.059  0.909  0.000   69.8    0.6   69.2    0.0
 2003 275    43  12.90  23.00  12.60  3.039  0.853  0.046  0.806  0.000   70.6    0.7   70.0    0.0
 2003 276    44   7.00  21.20  11.90  1.602  1.602  0.017  1.585  0.000   72.2    0.7   71.5    0.0
 2003 277    45   7.00  19.40  16.20  1.623  1.623  0.018  1.605  0.000   73.8    0.7   73.1    0.0
 2003 278    46  11.00  23.80  15.50  2.678  2.678  0.034  2.644  0.000   76.5    0.7   75.8    0.0
 2003 279    47  20.30  20.60  12.20  4.617  3.537  0.106  3.431  0.000   80.1    0.8   79.2    0.0
 2003 280    48  21.60  24.20  11.20  5.098  2.330  0.128  2.202  0.000   82.4    1.0   81.4    0.0
 2003 281    49   9.70  27.00  15.60  2.452  2.452  0.042  2.410  0.000   84.8    1.0   83.8    0.0
 2003 282    50  22.40  23.40  13.20  5.317  4.728  0.163  4.565  0.000   89.6    1.2   88.4    0.0
 2003 283    51  13.80  13.60   7.40  2.719  2.719  0.061  2.658  0.000   92.3    1.2   91.1    0.0
 2003 284    52  25.30  15.20   3.90  4.929  1.580  0.169  1.412  0.000   93.9    1.4   92.5    0.0
 2003 285    53  25.50  16.30   3.20  5.015  1.272  0.177  1.095  0.000   95.1    1.6   93.6    0.0
 2003 286    54  25.40  20.10   4.30  5.334  1.123  0.195  0.927  0.000   96.3    1.8   94.5    0.0
 2003 287    55  25.40  24.80   8.00  5.868  1.045  0.226  0.819  0.000   97.3    2.0   95.3    0.0
 2003 288    56  25.80  26.40  11.80  6.271  1.005  0.263  0.742  0.000   98.3    2.3   96.1    0.0
 2003 289    57  26.40  30.80  12.70  6.801  0.998  0.315  0.683  0.000   99.3    2.6   96.7    0.0
 2003 290    58  21.90  30.30  16.30  5.760  0.932  0.296  0.636  0.000  100.2    2.9   97.4    0.0
 2003 291    59  17.90  32.90  19.00  4.935  3.242  0.282  2.960  0.000  103.5    3.2  100.3    0.0
 2003 292    60  22.40  23.90  14.40  5.376  0.994  0.351  0.643  0.000  104.5    3.5  101.0    0.0
 2003 293    61  10.90  21.20  11.10  2.457  0.778  0.175  0.603  0.000  105.3    3.7  101.6    0.0
 2003 294    62  25.50  23.50  12.00  5.961  1.019  0.449  0.570  0.000  106.3    4.1  102.1    0.0
 2003 295    63  26.90  24.20   9.10  6.187  1.039  0.497  0.542  0.000  107.3    4.6  102.7    0.0
 2003 296    64  27.30  27.20  11.00  6.616  1.079  0.561  0.518  0.000  108.4    5.2  103.2    0.0
 2003 297    65  22.90  32.00  14.80  6.030  1.078  0.582  0.497  0.000  109.5    5.8  103.7    0.0
 2003 298    66  11.40  24.90  19.20  2.857  2.857  0.209  2.648  0.000  112.3    6.0  106.4    0.0
 2003 299    67  21.10  25.90  14.70  5.150  4.838  0.672  4.166  0.000  117.2    6.7  110.5    0.0
 2003 300    68  27.30  20.80   8.40  5.910  3.662  0.882  2.780  0.000  120.8    7.5  113.3    0.0
 2003 301    69  27.40  23.80   9.00  6.192  2.408  0.986  1.423  0.000  123.2    8.5  114.7    0.0
 2003 302    70  27.50  26.40  10.80  6.503  2.228  1.128  1.100  0.000  125.5    9.6  115.8    0.0
 2003 303    71  27.90  31.30  15.90  7.245  2.329  1.399  0.931  0.000  127.8   11.0  116.8    0.0
 2003 304    72  10.40  19.90  11.50  2.262  2.262  0.347  1.916  0.000  130.1   11.4  118.7    0.0
 2003 305    73  27.90  18.60   8.10  5.773  5.701  1.349  4.352  0.000  135.8   12.7  123.0    0.0
 2003 306    74  27.80  20.00   4.50  5.664  4.240  1.383  2.857  0.000  140.0   14.1  125.9    0.0
 2003 307    75  27.80  21.20   5.00  5.776  2.903  1.474  1.429  0.000  142.9   15.6  127.3    0.0
 2003 308    76  25.00  22.40   9.50  5.483  2.576  1.473  1.103  0.000  145.5   17.1  128.4    0.0
 2003 309    77  28.00  24.60  11.10  6.383  2.768  1.836  0.932  0.000  148.2   18.9  129.3    0.0
 2003 310    78  25.10  26.60  13.50  5.956  2.687  1.864  0.822  0.000  150.9   20.8  130.2    0.0
 2003 311    79  25.30  27.80  14.80  6.120  2.863  2.119  0.744  0.000  153.8   22.9  130.9    0.0
 2003 312    80  21.00  29.70  14.90  5.168  2.662  1.978  0.685  0.000  156.5   24.9  131.6    0.0
 2003 313    81  16.70  29.60  18.00  4.178  2.394  1.756  0.638  0.000  158.9   26.6  132.2    0.0
 2003 314    82  27.50  30.40  14.90  6.745  3.691  3.092  0.599  0.000  162.5   29.7  132.8    0.0
 2003 315    83  24.40  33.80  16.50  6.254  6.254  2.604  3.650  0.000  168.8   32.3  136.5    0.0
 2003 316    84  12.00  20.20  13.90  2.556  2.556  1.039  1.517  0.000  171.4   33.4  138.0    0.0
 2003 317    85  24.50  19.50  11.30  5.043  5.043  2.115  2.927  0.000  176.4   35.5  140.9    0.0
 2003 318    86  28.50  22.70   8.20  5.942  5.942  3.286  2.656  0.000  182.3   38.8  143.6    0.0
 2003 319    87  27.30  29.30  11.70  6.341  6.341  2.799  3.542  0.000  188.7   41.6  147.1    0.0
 2003 320    88   8.60  21.90  17.70  1.911  1.911  0.879  1.032  0.000  190.6   42.4  148.2    0.0
 2003 321    89  15.00  26.60  16.30  3.476  3.476  1.651  1.825  0.000  194.1   44.1  150.0    0.0
 2003 322    90  11.50  18.10  13.20  2.329  2.329  1.148  1.181  0.000  196.4   45.2  151.2    0.0
 2003 323    91  26.20  25.50  13.80  5.848  5.848  2.927  2.921  0.000  202.2   48.2  154.1    0.0
 2003 324    92  29.80  20.20  11.20  6.070  6.070  3.551  2.519  0.000  208.3   51.7  156.6    0.0
 2003 325    93  30.50  25.70   9.80  6.575  6.575  3.641  2.934  0.000  214.9   55.4  159.5    0.0
 2003 326    94  29.70  33.10  15.60  7.282  6.494  5.060  1.434  0.000  221.4   60.4  161.0    0.0
 2003 327    95  27.30  34.10  19.20  6.922  6.922  3.840  3.082  0.000  228.3   64.3  164.1    0.0
 2003 328    96   8.80  19.40  15.40  1.823  1.823  1.039  0.783  0.000  230.1   65.3  164.8    0.0
 2003 329    97  27.90  27.60  13.40  6.281  6.281  3.834  2.447  0.000  236.4   69.1  167.3    0.0
 2003 330    98  17.00  29.50  18.00  4.046  4.046  2.368  1.678  0.000  240.5   71.5  169.0    0.0
 2003 331    99  30.00  29.20  17.40  7.072  7.072  4.219  2.853  0.000  247.5   75.7  171.8    0.0
 2003 332   100  15.70  27.50  14.70  3.554  3.554  2.130  1.424  0.000  251.1   77.8  173.2    0.0
 2003 333   101  31.00  29.10  14.00  7.103  7.103  5.405  1.698  0.000  258.2   83.3  174.9    0.0
 2003 334   102  11.50  22.20  16.50  2.476  2.476  1.504  0.972  0.000  260.7   84.8  175.9    0.0
 2003 335   103  28.70  26.10  16.20  6.455  6.455  3.946  2.508  0.000  267.1   88.7  178.4    0.0
 2003 336   104  22.60  25.70  13.20  4.938  4.938  3.029  1.910  0.000  272.1   91.7  180.3    0.0
[...]
 2012 365   133  30.50  33.00  15.00  7.485  5.988  4.878  1.111  0.000  461.7  228.3  233.4    0.0
 2012 366   134  23.10  32.80  19.10  5.830  5.830  2.911  2.919  0.000  467.5  231.2  236.3    0.0
 2013 001   135  27.70  21.50  12.30  5.815  5.815  2.885  2.930  0.000  473.3  234.1  239.2    0.0
 2013 002   136  27.00  22.20   8.70  5.547  5.300  3.554  1.746  0.000  478.6  237.6  241.0    0.0
 2013 003   137  29.70  26.20  10.40  6.515  6.406  4.155  2.251  0.000  485.0  241.8  243.2    0.0
 2013 004   138  31.30  32.50  16.60  7.749  6.270  4.916  1.354  0.000  491.3  246.7  244.6    0.0
 2013 005   139  11.50  25.40  18.50  2.668  2.668  1.600  1.068  0.000  494.0  248.3  245.7    0.0
 2013 006   140  12.50  27.20  16.90  2.926  2.746  1.835  0.911  0.000  496.7  250.1  246.6    0.0
 2013 007   141  11.30  24.90  18.50  2.609  2.609  1.252  1.357  0.000  499.3  251.4  247.9    0.0
 2013 008   142  26.70  30.80  17.50  6.545  5.441  4.058  1.383  0.000  504.8  255.4  249.3    0.0
 2013 009   143  26.10  30.00  19.70  6.449  5.058  3.976  1.082  0.000  509.8  259.4  250.4    0.0
 2013 010   144  31.30  30.30  15.90  7.549  5.548  4.628  0.919  0.000  515.4  264.1  251.3    0.0
 2013 011   145  30.80  28.50  14.10  7.182  5.194  4.380  0.814  0.000  520.6  268.4  252.1    0.0
 2013 012   146  29.90  28.00  14.70  6.967  4.966  4.228  0.738  0.000  525.5  272.7  252.9    0.0
 2013 013   147  31.60  28.30  13.80  7.341  5.114  4.434  0.680  0.000  530.6  277.1  253.5    0.0
 2013 014   148  27.50  29.30  16.90  6.619  6.619  3.061  3.558  0.000  537.3  280.2  257.1    0.0
 2013 015   149  29.30  30.20  17.30  7.148  7.148  3.856  3.291  0.000  544.4  284.0  260.4    0.0
 2013 016   150  25.60  30.40  17.80  6.285  6.285  3.533  2.752  0.000  550.7  287.5  263.1    0.0
 2013 017   151  17.60  25.00  18.10  4.123  4.123  1.640  2.484  0.000  554.8  289.2  265.6    0.0
 2013 018   152  26.90  29.70  18.80  6.761  6.064  2.951  3.113  0.000  560.9  292.1  268.7    0.0
 2013 019   153  29.00  27.80  16.50  7.086  4.681  2.598  2.083  0.000  565.6  294.7  270.8    0.0
 2013 020   154  29.90  27.20  14.70  7.222  3.522  2.203  1.320  0.000  569.1  296.9  272.1    0.0
 2013 021   155  30.70  28.20  14.10  7.526  2.946  1.895  1.051  0.000  572.0  298.8  273.2    0.0
 2013 022   156  22.90  31.00  16.10  5.924  2.123  1.223  0.900  0.000  574.2  300.1  274.1    0.0
 2013 023   157  24.40  30.40  20.10  6.493  5.967  1.093  4.874  0.000  580.1  301.1  279.0    0.0
 2013 024   158  17.20  28.80  19.50  4.499  4.499  0.407  4.092  0.000  584.6  301.6  283.1    0.0
 2013 025   159  29.20  24.40  13.10  6.929  5.390  0.770  4.620  0.000  590.0  302.3  287.7    0.0
 2013 026   160  30.20  25.00   7.70  6.925  2.338  0.622  1.716  0.000  592.3  302.9  289.4    0.0
 2013 027   161  30.30  28.40   9.50  7.374  1.751  0.534  1.216  0.000  594.1  303.5  290.6    0.0

*DSSAT Cropping System Model Ver. 4.0.2.000               Aug 23, 2016; 16:35:33

*RUN  15        : UYSB                    
 MODEL          : CRGRO040 - Soybean         
 EXPERIMENT     : UYSB0221 SB    late to create DSS                             
 TREATMENT  1   : UYSB                    

@YEAR DOY   DAS   SRAA   TMXA   TMNA   EOAA   ETAA   EPAA   ESAA   EFAD   ETAC   EPAC   ESAC   EFAC
 2013 232     0  12.70  25.20  10.10  3.018  3.018  0.000  3.018  0.000    3.0    0.0    3.0    0.0
 2013 233     1   9.50  22.80  16.20  2.305  2.305  0.000  2.305  0.000    5.3    0.0    5.3    0.0
 2013 234     2   5.10  18.60   2.90  1.040  1.040  0.000  1.040  0.000    6.4    0.0    6.4    0.0
 2013 235     3   9.30   8.80   1.90  1.608  1.608  0.000  1.608  0.000    8.0    0.0    8.0    0.0
 2013 236     4   5.20   8.90   3.30  0.915  0.915  0.000  0.915  0.000    8.9    0.0    8.9    0.0
 2013 237     5   6.20   9.60   4.10  1.114  1.114  0.000  1.114  0.000   10.0    0.0   10.0    0.0
 2013 238     6   9.60  10.20   1.20  1.687  1.687  0.000  1.687  0.000   11.7    0.0   11.7    0.0
 2013 239     7  13.00  13.40   2.10  2.430  1.729  0.000  1.729  0.000   13.4    0.0   13.4    0.0
 2013 240     8  18.70  20.00   0.90  3.817  2.603  0.000  2.603  0.000   16.0    0.0   16.0    0.0
 2013 241     9  18.40  23.80   5.40  4.126  1.406  0.000  1.406  0.000   17.4    0.0   17.4    0.0
 2013 242    10  18.30  26.00   6.60  4.266  1.092  0.000  1.092  0.000   18.5    0.0   18.5    0.0
 2013 243    11  18.40  27.00   9.00  4.431  0.926  0.000  0.926  0.000   19.4    0.0   19.4    0.0
 2013 244    12  17.10  25.50  11.20  4.116  0.818  0.000  0.818  0.000   20.3    0.0   20.3    0.0
 2013 245    13  17.20  26.00  12.40  4.207  0.741  0.000  0.741  0.000   21.0    0.0   21.0    0.0
 2013 246    14  14.10  15.20   6.00  2.819  0.682  0.000  0.682  0.000   21.7    0.0   21.7    0.0
 2013 247    15  19.10  15.20  -0.40  3.578  0.636  0.000  0.636  0.000   22.3    0.0   22.3    0.0
 2013 248    16  14.50  19.80   4.50  3.052  0.610  0.012  0.597  0.000   22.9    0.0   22.9    0.0
 2013 249    17  14.30  27.00   9.00  3.442  0.580  0.015  0.565  0.000   23.5    0.0   23.5    0.0
 2013 250    18  15.90  30.00  16.50  4.203  4.203  0.012  4.191  0.000   27.7    0.0   27.7    0.0
 2013 251    19  18.60  24.00  12.00  4.421  0.930  0.024  0.906  0.000   28.6    0.1   28.6    0.0
 2013 252    20  18.90  30.40  11.70  4.838  0.833  0.028  0.804  0.000   29.5    0.1   29.4    0.0
 2013 253    21  19.60  34.00  18.00  5.469  0.766  0.035  0.731  0.000   30.2    0.1   30.1    0.0
 2013 254    22  19.70  34.00  17.20  5.466  0.714  0.039  0.674  0.000   31.0    0.2   30.8    0.0
 2013 255    23  20.40  34.20  17.40  5.679  1.645  0.045  1.600  0.000   32.6    0.2   32.4    0.0
 2013 256    24   6.10  19.00  12.00  1.359  1.359  0.007  1.352  0.000   34.0    0.2   33.7    0.0
 2013 257    25   6.10  11.90  11.40  1.224  1.224  0.007  1.217  0.000   35.2    0.2   35.0    0.0
 2013 258    26   6.20  16.00  12.00  1.326  1.326  0.008  1.319  0.000   36.5    0.2   36.3    0.0
 2013 259    27   7.70  18.00   9.90  1.660  1.660  0.010  1.650  0.000   38.2    0.2   37.9    0.0
 2013 260    28  10.20  10.40   4.10  1.854  1.854  0.012  1.841  0.000   40.0    0.3   39.8    0.0
 2013 261    29  16.60  16.00   2.90  3.252  2.977  0.035  2.942  0.000   43.0    0.3   42.7    0.0
 2013 262    30  21.60  19.80   3.50  4.499  3.144  0.051  3.094  0.000   46.1    0.3   45.8    0.0
 2013 263    31  18.00  21.90   8.00  4.020  1.490  0.048  1.442  0.000   47.6    0.4   47.2    0.0
 2013 264    32  18.10  20.10   7.20  3.917  1.160  0.051  1.109  0.000   48.8    0.4   48.4    0.0
 2013 265    33   6.50  15.40   9.80  1.350  0.955  0.019  0.936  0.000   49.7    0.5   49.3    0.0
 2013 266    34   8.40  12.00   6.20  1.600  0.848  0.023  0.825  0.000   50.6    0.5   50.1    0.0
 2013 267    35   8.80  13.40   3.80  1.671  0.771  0.025  0.746  0.000   51.4    0.5   50.9    0.0
 2013 268    36  20.40  17.40   2.00  4.042  0.748  0.062  0.686  0.000   52.1    0.6   51.5    0.0
 2013 269    37  19.30  19.00   3.70  3.980  0.702  0.063  0.639  0.000   52.8    0.6   52.2    0.0
 2013 270    38  16.50  21.00   9.00  3.672  0.661  0.061  0.600  0.000   53.5    0.7   52.8    0.0
 2013 271    39  13.40  21.40  12.90  3.100  0.622  0.055  0.568  0.000   54.1    0.7   53.3    0.0
 2013 272    40  14.80  19.50  11.00  3.285  0.604  0.064  0.540  0.000   54.7    0.8   53.9    0.0
 2013 273    41  15.00  18.80   7.70  3.200  0.584  0.068  0.516  0.000   55.3    0.9   54.4    0.0
 2013 274    42  22.60  20.00   5.30  4.793  0.603  0.108  0.495  0.000   55.9    1.0   54.9    0.0
 2013 275    43  23.20  18.20   3.50  4.714  0.588  0.112  0.476  0.000   56.5    1.1   55.4    0.0
 2013 276    44  16.70  20.80  10.10  3.738  0.552  0.093  0.459  0.000   57.0    1.2   55.8    0.0
 2013 277    45  17.30  18.00   9.80  3.718  0.543  0.099  0.444  0.000   57.6    1.3   56.3    0.0
 2013 278    46  18.00  18.00   7.80  3.797  0.538  0.107  0.431  0.000   58.1    1.4   56.7    0.0
 2013 279    47  22.20  20.70   5.30  4.749  0.558  0.140  0.418  0.000   58.7    1.5   57.1    0.0
 2013 280    48  24.20  22.80   5.20  5.321  0.571  0.164  0.407  0.000   59.2    1.7   57.5    0.0
 2013 281    49  24.20  24.90   9.00  5.651  0.579  0.183  0.396  0.000   59.8    1.9   57.9    0.0
 2013 282    50  18.10  27.20  10.10  4.386  0.542  0.155  0.386  0.000   60.4    2.0   58.3    0.0
 2013 283    51  12.90  27.00  15.90  3.263  3.263  0.081  3.182  0.000   63.6    2.1   61.5    0.0
 2013 284    52  12.00  21.60  16.50  2.857  2.857  0.080  2.776  0.000   66.5    2.2   64.3    0.0
 2013 285    53   7.40  18.60  16.00  1.688  1.688  0.052  1.636  0.000   68.2    2.3   65.9    0.0
 2013 286    54   9.80  22.00  16.20  2.336  2.336  0.078  2.258  0.000   70.5    2.3   68.2    0.0
 2013 287    55  24.20  25.40  13.00  5.855  4.563  0.335  4.228  0.000   75.1    2.7   72.4    0.0
 2013 288    56  24.40  26.40  13.00  5.970  2.346  0.376  1.971  0.000   77.4    3.0   74.4    0.0
 2013 289    57   7.90  25.00  14.00  1.914  1.424  0.132  1.292  0.000   78.8    3.2   75.7    0.0
 2013 290    58  20.50  24.10  14.20  4.917  1.405  0.367  1.037  0.000   80.2    3.5   76.7    0.0
 2013 291    59  25.30  25.50  12.20  6.068  1.380  0.488  0.892  0.000   81.6    4.0   77.6    0.0
 2013 292    60  22.50  26.90  11.20  5.441  1.262  0.467  0.794  0.000   82.9    4.5   78.4    0.0
 2013 293    61  14.10  30.80  14.80  3.663  3.663  0.231  3.432  0.000   86.5    4.7   81.8    0.0
 2013 294    62  22.40  24.60  12.70  5.310  4.577  0.597  3.980  0.000   91.1    5.3   85.8    0.0
 2013 295    63  18.90  22.40  10.10  4.255  4.255  0.353  3.902  0.000   95.4    5.7   89.7    0.0
 2013 296    64  22.20  21.20  14.70  5.110  5.110  0.464  4.646  0.000  100.5    6.1   94.3    0.0
 2013 297    65  21.80  21.40  11.80  4.898  3.928  0.746  3.182  0.000  104.4    6.9   97.5    0.0
 2013 298    66  17.50  19.90   7.80  3.714  2.734  0.614  2.120  0.000  107.2    7.5   99.6    0.0
 2013 299    67  14.80  21.50  14.20  3.387  3.387  0.399  2.988  0.000  110.5    7.9  102.6    0.0
 2013 300    68  25.70  23.20  12.00  5.883  5.402  1.129  4.273  0.000  115.9    9.0  106.9    0.0
 2013 301    69  25.30  22.00   6.20  5.408  3.597  1.138  2.459  0.000  119.5   10.2  109.4    0.0
 2013 302    70  24.90  25.00  12.20  5.811  2.688  1.300  1.388  0.000  122.2   11.5  110.8    0.0
 2013 303    71  25.60  25.00  13.20  6.003  2.568  1.484  1.084  0.000  124.8   13.0  111.8    0.0
 2013 304    72   8.40  24.40  15.20  1.979  1.463  0.542  0.921  0.000  126.3   13.5  112.8    0.0
 2013 305    73   8.50  27.50  19.00  2.131  1.454  0.640  0.815  0.000  127.7   14.1  113.6    0.0
 2013 306    74   8.20  23.90  16.70  1.927  1.927  0.479  1.448  0.000  129.6   14.6  115.0    0.0
 2013 307    75  19.00  22.50  13.90  4.271  4.271  1.181  3.089  0.000  133.9   15.8  118.1    0.0
 2013 308    76  28.30  21.00  10.60  6.043  5.466  2.355  3.111  0.000  139.4   18.1  121.2    0.0
 2013 309    77  27.80  22.40  12.00  6.100  4.710  2.489  2.221  0.000  144.1   20.6  123.4    0.0
 2013 310    78  28.60  26.00  13.00  6.593  4.191  2.843  1.348  0.000  148.3   23.5  124.8    0.0
 2013 311    79  22.00  29.80  15.00  5.361  3.538  2.473  1.065  0.000  151.8   26.0  125.9    0.0
 2013 312    80  14.70  27.00  18.20  3.538  2.653  1.744  0.909  0.000  154.5   27.7  126.8    0.0
 2013 313    81  10.60  23.00  18.00  2.419  2.419  0.982  1.437  0.000  156.9   28.7  128.2    0.0
 2013 314    82   8.50  20.50  19.10  1.891  1.891  0.804  1.087  0.000  158.8   29.5  129.3    0.0
 2013 315    83  28.90  24.00  16.30  6.540  6.540  2.874  3.666  0.000  165.3   32.4  133.0    0.0
 2013 316    84  29.00  27.00  15.20  6.726  6.726  3.576  3.149  0.000  172.0   35.9  136.1    0.0
 2013 317    85  26.20  25.60  15.30  5.959  5.959  3.181  2.778  0.000  178.0   39.1  138.9    0.0
 2013 318    86  29.50  31.00  16.00  7.154  7.154  4.392  2.762  0.000  185.2   43.5  141.6    0.0
 2013 319    87  13.20  23.00  15.00  2.883  2.883  1.457  1.426  0.000  188.0   45.0  143.1    0.0
 2013 320    88  29.50  23.00  11.20  6.228  6.228  3.229  2.999  0.000  194.3   48.2  146.1    0.0
 2013 321    89  29.70  23.90  11.20  6.331  6.331  3.909  2.422  0.000  200.6   52.1  148.5    0.0
 2013 322    90  29.30  31.00  15.50  7.015  7.015  3.774  3.241  0.000  207.6   55.9  151.7    0.0
 2013 323    91   8.70  21.40  18.00  1.894  1.894  1.045  0.849  0.000  209.5   56.9  152.6    0.0
 2013 324    92  11.50  23.90  17.00  2.556  2.556  1.432  1.124  0.000  212.1   58.4  153.7    0.0
 2013 325    93  19.10  25.00  17.20  4.302  4.302  2.450  1.852  0.000  216.4   60.8  155.6    0.0
 2013 326    94  28.20  25.10  16.30  6.304  6.304  3.655  2.649  0.000  222.7   64.5  158.2    0.0
 2013 327    95  30.00  27.00  14.90  6.778  6.778  4.486  2.292  0.000  229.4   68.9  160.5    0.0
 2013 328    96  30.20  30.00  17.00  7.169  7.169  4.373  2.796  0.000  236.6   73.3  163.3    0.0
 2013 329    97  21.30  31.20  19.80  5.224  5.224  3.800  1.424  0.000  241.8   77.1  164.7    0.0
 2013 330    98  12.90  28.00  20.00  3.057  3.057  2.131  0.926  0.000  244.9   79.2  165.6    0.0
 2013 331    99  19.00  27.60  16.90  4.376  4.376  2.648  1.728  0.000  249.3   81.9  167.4    0.0
 2013 332   100  30.20  23.80  12.40  6.410  6.410  3.899  2.511  0.000  255.7   85.8  169.9    0.0
 2013 333   101  30.10  28.30  13.00  6.776  6.776  4.488  2.287  0.000  262.5   90.3  172.2    0.0
 2013 334   102  29.80  28.20  16.00  6.855  6.855  4.204  2.651  0.000  269.3   94.5  174.8    0.0
 2013 335   103  18.30  27.90  16.80  4.219  4.219  2.597  1.623  0.000  273.5   97.1  176.4    0.0
 2013 336   104  27.80  31.00  19.00  6.744  6.744  5.233  1.510  0.000  280.3  102.3  178.0    0.0
 2013 337   105  27.30  24.20  13.50  5.868  5.717  4.578  1.139  0.000  286.0  106.9  179.1    0.0
 2013 338   106  26.70  31.40  11.20  6.137  5.745  4.791  0.953  0.000  291.7  111.7  180.0    0.0
 2013 339   107  30.40  26.60  17.30  6.929  6.248  5.411  0.837  0.000  298.0  117.1  180.9    0.0
 2013 340   108  26.00  23.50  12.50  5.494  5.045  4.291  0.755  0.000  303.0  121.4  181.6    0.0
 2013 341   109  30.50  30.00  11.50  6.915  6.089  5.396  0.693  0.000  309.1  126.8  182.3    0.0
 2013 342   110  27.70  34.00  16.00  6.791  6.791  4.192  2.599  0.000  315.9  131.0  184.9    0.0
 2013 343   111  10.70  29.00  20.80  2.573  2.573  1.586  0.987  0.000  318.5  132.6  185.9    0.0
 2013 344   112  25.90  24.80  16.50  5.747  5.747  3.529  2.219  0.000  324.2  136.1  188.1    0.0
 2013 345   113  30.50  25.80  12.00  6.608  6.608  4.996  1.612  0.000  330.8  141.1  189.8    0.0
 2013 346   114  29.00  27.80  13.90  6.535  6.535  4.176  2.359  0.000  337.4  145.3  192.1    0.0
 2013 347   115  30.10  30.60  17.40  7.192  6.930  5.558  1.373  0.000  344.3  150.8  193.5    0.0
 2013 348   116  30.70  33.00  17.70  7.548  6.895  5.818  1.077  0.000  351.2  156.6  194.6    0.0
 2013 349   117  24.60  33.00  19.90  6.145  6.145  3.725  2.420  0.000  357.3  160.4  197.0    0.0
 2013 350   118  26.20  35.00  18.90  6.640  6.640  4.008  2.631  0.000  364.0  164.4  199.6    0.0
 2013 351   119  29.80  32.80  15.00  7.177  7.177  5.081  2.096  0.000  371.2  169.5  201.7    0.0
 2013 352   120  26.20  31.20  17.50  6.317  6.317  3.783  2.534  0.000  377.5  173.2  204.2    0.0
 2013 353   121  24.40  31.80  19.00  5.988  5.940  4.542  1.398  0.000  383.4  177.8  205.6    0.0
 2013 354   122  29.40  31.00  19.80  7.198  6.529  5.440  1.089  0.000  389.9  183.2  206.7    0.0
 2013 355   123  31.10  33.00  19.20  7.749  7.749  4.581  3.168  0.000  397.7  187.8  209.9    0.0
 2013 356   124  31.30  31.10  20.00  7.688  7.688  4.657  3.031  0.000  405.4  192.5  212.9    0.0
 2013 357   125  31.10  33.00  18.60  7.722  7.722  4.524  3.198  0.000  413.1  197.0  216.1    0.0
 2013 358   126  31.10  34.20  18.20  7.803  7.289  5.809  1.481  0.000  420.4  202.8  217.6    0.0
 2013 359   127  30.20  35.60  17.90  7.885  6.973  5.847  1.126  0.000  427.4  208.6  218.7    0.0
 2013 360   128  28.70  38.80  21.20  9.041  9.041  5.223  3.818  0.000  436.4  213.9  222.5    0.0
 2013 361   129  20.10  36.30  22.00  5.609  5.609  3.307  2.302  0.000  442.0  217.2  224.9    0.0
 2013 362   130  23.00  34.00  20.20  5.849  5.849  3.350  2.500  0.000  447.9  220.5  227.4    0.0
 2013 363   131  19.40  36.10  23.00  5.398  5.398  3.075  2.323  0.000  453.3  223.6  229.7    0.0
 2013 364   132  29.60  38.60  22.00  9.299  9.299  5.270  4.028  0.000  462.6  228.9  233.7    0.0
 2013 365   133   9.10  29.50  19.00  2.189  2.189  1.235  0.954  0.000  464.8  230.1  234.7    0.0
 2014 001   134  26.90  35.40  20.00  7.071  7.071  4.802  2.269  0.000  471.8  234.9  236.9    0.0
 2014 002   135  23.20  33.60  21.60  5.947  5.947  3.482  2.466  0.000  477.8  238.4  239.4    0.0
 2014 003   136  26.80  26.90  16.80  6.168  5.786  4.397  1.389  0.000  483.6  242.8  240.8    0.0
 2014 004   137  30.40  30.60  11.30  7.003  7.003  3.861  3.142  0.000  490.6  246.6  243.9    0.0
 2014 005   138  30.60  34.00  14.00  7.477  7.477  4.307  3.170  0.000  498.0  250.9  247.1    0.0
 2014 006   139  30.10  35.20  19.40  7.814  7.814  4.612  3.202  0.000  505.9  255.6  250.3    0.0
 2014 007   140  25.30  36.20  18.80  6.910  6.910  3.744  3.166  0.000  512.8  259.3  253.5    0.0
 2014 008   141  24.10  30.20  19.00  5.868  5.868  3.162  2.706  0.000  518.6  262.5  256.2    0.0
 2014 009   142  27.00  33.00  20.60  6.857  6.857  4.655  2.202  0.000  525.5  267.1  258.4    0.0
 2014 010   143  12.10  26.00  19.90  2.833  2.833  1.508  1.325  0.000  528.3  268.6  259.7    0.0
 2014 011   144  11.10  25.90  19.00  2.580  2.580  1.364  1.215  0.000  530.9  270.0  260.9    0.0
 2014 012   145  15.50  25.50  13.00  3.422  3.422  1.817  1.605  0.000  534.3  271.8  262.5    0.0
 2014 013   146  17.20  27.00  17.90  4.018  3.894  2.718  1.176  0.000  538.2  274.5  263.7    0.0
 2014 014   147  16.20  28.00  21.20  3.926  3.926  2.041  1.885  0.000  542.1  276.6  265.6    0.0
 2014 015   148  30.30  30.00  17.90  7.330  7.330  3.788  3.543  0.000  549.5  280.4  269.1    0.0
 2014 016   149  30.20  33.10  17.90  7.561  7.466  5.032  2.435  0.000  556.9  285.4  271.6    0.0
 2014 017   150  30.10  34.00  19.90  7.720  7.213  5.111  2.102  0.000  564.1  290.5  273.7    0.0
 2014 018   151  30.20  36.20  23.00  8.538  6.946  5.622  1.324  0.000  571.1  296.1  275.0    0.0
 2014 019   152  24.40  36.00  22.90  6.824  6.824  3.448  3.376  0.000  577.9  299.6  278.4    0.0
 2014 020   153  24.70  36.00  23.00  6.915  6.915  3.476  3.440  0.000  584.8  303.0  281.8    0.0
 2014 021   154  26.50  35.00  22.80  7.019  7.019  3.510  3.510  0.000  591.9  306.6  285.3    0.0
 2014 022   155  22.70  33.00  21.00  5.820  5.820  2.896  2.925  0.000  597.7  309.4  288.2    0.0
 2014 023   156  29.30  36.00  25.50  8.454  8.454  4.346  4.107  0.000  606.1  313.8  292.3    0.0
 2014 024   157  11.10  30.00  17.80  2.760  2.760  1.113  1.647  0.000  608.9  314.9  294.0    0.0
 2014 025   158   8.90  23.00  14.20  2.005  2.005  0.644  1.361  0.000  610.9  315.5  295.3    0.0
 2014 026   159  28.10  23.30  16.00  6.511  6.322  2.218  4.104  0.000  617.2  317.8  299.4    0.0
 2014 027   160   9.70  28.00  20.60  2.481  2.481  0.506  1.975  0.000  619.7  318.3  301.4    0.0
 2014 028   161  23.70  32.00  21.00  6.396  6.396  1.043  5.353  0.000  626.1  319.3  306.8    0.0
 2014 029   162  10.20  24.90  21.00  2.562  2.562  0.333  2.228  0.000  628.7  319.7  309.0    0.0
 2014 030   163   9.60  26.00  21.50  2.463  2.463  0.256  2.207  0.000  631.1  319.9  311.2    0.0
 2014 031   164  12.00  24.80  21.00  3.039  3.039  0.253  2.786  0.000  634.2  320.2  314.0    0.0
 2014 032   165  16.50  26.30  20.10  4.236  4.236  0.282  3.954  0.000  638.4  320.4  317.9    0.0
 2014 033   166  23.70  29.80  20.00  6.341  6.341  0.339  6.002  0.000  644.7  320.8  324.0    0.0
