*GROWTH ASPECTS OUTPUT FILE

*DSSAT Cropping System Model Ver. 4.0.2.000               Aug 23, 2016; 16:35:33

*RUN   1        : UYSB                    
 MODEL          : CRGRO040 - Soybean         
 EXPERIMENT     : UYSB0221 SB    late to create DSS                             
 TREATMENT  1   : UYSB                    

@YEAR DOY   DAS   DAP   L#SD   GSTD   LAID   LWAD   SWAD   GWAD   RWAD   CWAD   G#AD    GWGD   HIAD   PWAD   P#AD   WSPD   WSGD   NSTD   EWSD    LN%D   SH%D   HIPD   PWDD   PWTD   SLAD   CHTD   CWID   NWAD   RDPD   RL1D   RL2D   RL3D   RL4D   RL5D   RL6D   RL7D   RL8D   RL9D   RL10   SNW0C   SNW1C
 1999 235     3     0    0.0      0   0.00      0      0      0      0      0      0     0.0  0.000      0      0  0.000  0.000  0.000  0.000    0.00   0.00   0.00      0      0    0.0   0.00   0.00    0.0   0.00   0.00   0.00   0.00   0.00   0.00   0.00   0.00   0.00   0.00   0.00       0       0
 1999 236     4     1    0.0      0   0.00      0      0      0      0      0      0     0.0  0.000      0      0  0.000  0.000  0.000  0.000    0.00   0.00   0.00      0      0    0.0   0.00   0.00    0.0   0.00   0.00   0.00   0.00   0.00   0.00   0.00   0.00   0.00   0.00   0.00       0       0
 1999 237     5     2    0.0      0   0.00      0      0      0      0      0      0     0.0  0.000      0      0  0.000  0.000  0.000  0.000    0.00   0.00   0.00      0      0    0.0   0.00   0.00    0.0   0.00   0.00   0.00   0.00   0.00   0.00   0.00   0.00   0.00   0.00   0.00       0       0
 1999 238     6     3    0.0      0   0.00      0      0      0      0      0      0     0.0  0.000      0      0  0.000  0.000  0.000  0.000    0.00   0.00   0.00      0      0    0.0   0.00   0.00    0.0   0.00   0.00   0.00   0.00   0.00   0.00   0.00   0.00   0.00   0.00   0.00       0       0
 1999 239     7     4    0.0      0   0.00      0      0      0      0      0      0     0.0  0.000      0      0  0.000  0.000  0.000  0.000    0.00   0.00   0.00      0      0    0.0   0.00   0.00    0.0   0.00   0.00   0.00   0.00   0.00   0.00   0.00   0.00   0.00   0.00   0.00       0       0
 1999 240     8     5    0.0      0   0.00      0      0      0      0      0      0     0.0  0.000      0      0  0.000  0.000  0.000  0.000    0.00   0.00   0.00      0      0    0.0   0.00   0.00    0.0   0.00   0.00   0.00   0.00   0.00   0.00   0.00   0.00   0.00   0.00   0.00       0       0
 1999 241     9     6    0.0      0   0.00      0      0      0      0      0      0     0.0  0.000      0      0  0.000  0.000  0.000  0.000    0.00   0.00   0.00      0      0    0.0   0.00   0.00    0.0   0.00   0.00   0.00   0.00   0.00   0.00   0.00   0.00   0.00   0.00   0.00       0       0
 1999 242    10     7    0.0      0   0.00      0      0      0      0      0      0     0.0  0.000      0      0  0.000  0.000  0.000  0.000    0.00   0.00   0.00      0      0    0.0   0.00   0.00    0.0   0.00   0.00   0.00   0.00   0.00   0.00   0.00   0.00   0.00   0.00   0.00       0       0
 1999 243    11     8    0.0      0   0.00      0      0      0      0      0      0     0.0  0.000      0      0  0.000  0.000  0.000  0.000    0.00   0.00   0.00      0      0    0.0   0.00   0.00    0.0   0.00   0.00   0.00   0.00   0.00   0.00   0.00   0.00   0.00   0.00   0.00       0       0
 1999 244    12     9    0.0      0   0.00      0      0      0      0      0      0     0.0  0.000      0      0  0.000  0.000  0.000  0.000    0.00   0.00   0.00      0      0    0.0   0.00   0.00    0.0   0.00   0.00   0.00   0.00   0.00   0.00   0.00   0.00   0.00   0.00   0.00       0       0
 1999 245    13    10    0.0      0   0.01      3      1      0      4      4      0     0.0  0.000      0      0  0.000  0.000  0.000  0.000    5.70   0.00   0.00      0      0  193.1   0.03   0.03    0.9   0.33   0.04   0.04   0.02   0.00   0.00   0.00   0.00   0.00   0.00   0.00       0       0
 1999 246    14    11    0.1      0   0.01      3      1      0      4      4      0     0.0  0.000      0      0  0.000  0.000  0.000  0.269    5.70   0.00   0.00      0      0  197.5   0.03   0.03    0.9   0.38   0.04   0.04   0.02   0.00   0.00   0.00   0.00   0.00   0.00   0.00       0       0
 1999 247    15    12    0.1      0   0.01      3      1      0      4      4      0     0.0  0.000      0      0  0.000  0.000  0.000  0.000    5.70   0.00   0.00      0      0  203.2   0.03   0.03    0.8   0.44   0.04   0.04   0.03   0.00   0.00   0.00   0.00   0.00   0.00   0.00       0       0
 1999 248    16    13    0.2      0   0.01      3      1      0      4      4      0     0.0  0.000      0      0  0.000  0.000  0.000  0.000    5.70   0.00   0.00      0      0  212.7   0.03   0.03    0.8   0.51   0.04   0.04   0.03   0.00   0.00   0.00   0.00   0.00   0.00   0.00       0       0
 1999 249    17    14    0.3      0   0.01      4      1      0      4      4      0     0.0  0.000      0      0  0.000  0.000  0.000  0.000    5.71   0.00   0.00      0      0  222.1   0.04   0.04    0.8   0.60   0.04   0.04   0.03   0.00   0.00   0.00   0.00   0.00   0.00   0.00       0       0
 1999 250    18    15    0.4      0   0.01      4      1      0      5      5      0     0.0  0.000      0      0  0.000  0.000  0.000  0.000    5.71   0.00   0.00      0      0  226.4   0.04   0.04    0.7   0.66   0.04   0.04   0.03   0.00   0.00   0.00   0.00   0.00   0.00   0.00       0       0
 1999 251    19    16    0.4      0   0.01      4      1      0      5      5      0     0.0  0.000      0      0  0.000  0.000  0.000  0.000    5.71   0.00   0.00      0      0  223.4   0.04   0.04    0.7   0.71   0.04   0.04   0.03   0.00   0.00   0.00   0.00   0.00   0.00   0.00       0       0
 1999 252    20    17    0.5      0   0.01      4      1      0      5      5      0     0.0  0.000      0      0  0.000  0.000  0.000  0.000    5.71   0.00   0.00      0      0  219.3   0.04   0.04    0.7   0.75   0.05   0.05   0.03   0.00   0.00   0.00   0.00   0.00   0.00   0.00       0       0
 1999 253    21    18    0.5      0   0.01      4      1      0      6      6      0     0.0  0.000      0      0  0.000  0.000  0.000  0.000    5.71   0.00   0.00      0      0  215.3   0.04   0.04    0.7   0.77   0.05   0.05   0.04   0.01   0.00   0.00   0.00   0.00   0.00   0.00       0       0
 1999 254    22    19    0.5      0   0.01      5      1      0      6      6      0     0.0  0.000      0      0  0.000  0.000  0.000  0.000    5.71   0.00   0.00      0      0  212.6   0.04   0.04    0.7   0.80   0.05   0.05   0.04   0.01   0.01   0.00   0.00   0.00   0.00   0.00       0       0
 1999 255    23    20    0.6      0   0.01      5      1      0      7      6      0     0.0  0.000      0      0  0.000  0.000  0.000  0.000    5.71   0.00   0.00      0      0  211.7   0.04   0.04    0.7   0.84   0.05   0.05   0.04   0.01   0.01   0.00   0.00   0.00   0.00   0.00       0       1
 1999 256    24    21    0.7      0   0.01      5      2      0      8      7      0     0.0  0.000      0      0  0.000  0.000  0.000  0.000    5.71   0.00   0.00      0      0  216.7   0.04   0.04    0.8   0.93   0.06   0.06   0.05   0.01   0.01   0.00   0.00   0.00   0.00   0.00       0       1
 1999 257    25    22    0.7      0   0.01      5      2      0      8      7      0     0.0  0.000      0      0  0.000  0.000  0.000  0.000    5.71   0.00   0.00      0      0  215.2   0.05   0.05    0.8   0.97   0.06   0.06   0.05   0.01   0.01   0.00   0.00   0.00   0.00   0.00       0       1
 1999 258    26    23    0.8      0   0.01      5      2      0      9      7      0     0.0  0.000      0      0  0.000  0.000  0.000  0.000    5.71   0.00   0.00      0      0  212.9   0.05   0.05    0.8   1.01   0.06   0.06   0.05   0.01   0.01   0.01   0.00   0.00   0.00   0.00       0       1
 1999 259    27    24    0.8      0   0.01      6      2      0     10      8      0     0.0  0.000      0      0  0.000  0.000  0.000  0.000    5.72   0.00   0.00      0      0  213.5   0.05   0.05    0.9   1.09   0.07   0.07   0.06   0.01   0.01   0.01   0.00   0.00   0.00   0.00       0       1
 1999 260    28    25    0.9      0   0.01      6      2      0     11      8      0     0.0  0.000      0      0  0.000  0.000  0.000  0.000    5.72   0.00   0.00      0      0  213.4   0.05   0.05    0.9   1.15   0.07   0.07   0.06   0.02   0.01   0.01   0.00   0.00   0.00   0.00       0       1
 1999 261    29    26    1.1      0   0.01      7      3      0     12      9      0     0.0  0.000      0      0  0.000  0.000  0.000  0.000    5.72   0.00   0.00      0      0  219.3   0.05   0.05    0.9   1.25   0.07   0.07   0.06   0.02   0.02   0.01   0.00   0.00   0.00   0.00       0       1
 1999 262    30    27    1.2      0   0.02      8      3      0     12     10      0     0.0  0.000      0      0  0.000  0.000  0.000  0.000    5.72   0.00   0.00      0      0  214.0   0.06   0.06    0.9   1.25   0.08   0.08   0.07   0.02   0.02   0.01   0.00   0.00   0.00   0.00       0       1
 1999 263    31    28    1.4      0   0.02      9      3      0     13     12      0     0.0  0.000      0      0  0.000  0.000  0.000  0.000    5.72   0.00   0.00      0      0  215.5   0.06   0.06    1.0   1.25   0.08   0.08   0.07   0.02   0.02   0.01   0.01   0.00   0.00   0.00       0       1
 1999 264    32    29    1.5      0   0.02     10      3      0     14     13      0     0.0  0.000      0      0  0.000  0.000  0.000  0.000    5.72   0.00   0.00      0      0  214.6   0.07   0.07    1.0   1.25   0.09   0.09   0.07   0.02   0.02   0.01   0.01   0.00   0.00   0.00       0       1
 1999 265    33    30    1.6      0   0.02     10      4      0     15     14      0     0.0  0.000      0      0  0.000  0.000  0.000  0.000    5.72   0.00   0.00      0      0  212.5   0.07   0.07    1.1   1.25   0.09   0.09   0.08   0.02   0.02   0.01   0.01   0.00   0.00   0.00       0       1
 1999 266    34    31    1.7      0   0.02     11      4      0     16     15      0     0.0  0.000      0      0  0.000  0.000  0.000  0.000    5.72   0.00   0.00      0      0  209.2   0.08   0.08    1.1   1.25   0.09   0.09   0.08   0.03   0.02   0.02   0.01   0.00   0.00   0.00       0       1
 1999 267    35    32    1.9      0   0.03     12      5      0     18     17      0     0.0  0.000      0      0  0.000  0.000  0.000  0.000    5.72   0.00   0.00      0      0  208.3   0.08   0.08    1.2   1.25   0.10   0.10   0.09   0.03   0.03   0.02   0.01   0.00   0.00   0.00       0       1
 1999 268    36    33    2.0      0   0.03     13      5      0     18     17      0     0.0  0.000      0      0  0.000  0.000  0.000  0.000    5.72   0.00   0.00      0      0  212.6   0.09   0.08    1.2   1.25   0.10   0.10   0.09   0.03   0.03   0.02   0.01   0.00   0.00   0.00       0       1
 1999 269    37    34    2.1      0   0.03     13      5      0     19     18      0     0.0  0.000      0      0  0.000  0.000  0.000  0.000    5.72   0.00   0.00      0      0  218.4   0.09   0.09    1.1   1.25   0.10   0.10   0.09   0.03   0.03   0.02   0.01   0.00   0.00   0.00       0       1
 1999 270    38    35    2.2      0   0.03     15      5      0     20     20      0     0.0  0.000      0      0  0.000  0.000  0.000  0.000    5.72   0.00   0.00      0      0  216.8   0.09   0.09    1.2   1.25   0.11   0.11   0.10   0.03   0.03   0.02   0.01   0.01   0.00   0.00       0       1
 1999 271    39    36    2.4      0   0.04     16      6      0     21     21      0     0.0  0.000      0      0  0.000  0.000  0.000  0.000    5.72   0.00   0.00      0      0  224.0   0.10   0.10    1.2   1.25   0.11   0.11   0.10   0.03   0.03   0.02   0.01   0.01   0.00   0.00       0       2
 1999 272    40    37    2.5      0   0.04     17      6      0     22     23      0     0.0  0.000      0      0  0.000  0.000  0.000  0.000    5.72   0.00   0.00      0      0  217.2   0.10   0.10    1.2   1.25   0.12   0.12   0.11   0.04   0.03   0.02   0.01   0.01   0.00   0.00       0       2
 1999 273    41    38    2.6      0   0.04     18      7      0     24     25      0     0.0  0.000      0      0  0.000  0.000  0.000  0.000    5.72   0.00   0.00      0      0  214.8   0.10   0.10    1.3   1.25   0.13   0.13   0.12   0.04   0.04   0.03   0.02   0.01   0.00   0.00       0       2
 1999 274    42    39    2.6      0   0.04     19      7      0     24     26      0     0.0  0.000      0      0  0.000  0.000  0.000  0.049    5.72   0.00   0.00      0      0  213.9   0.11   0.10    1.3   1.25   0.13   0.12   0.12   0.04   0.04   0.03   0.02   0.01   0.00   0.00       0       2
 1999 275    43    40    2.7      0   0.04     20      8      0     25     28      0     0.0  0.000      0      0  0.000  0.000  0.000  0.000    5.72   0.00   0.00      0      0  208.8   0.11   0.11    1.3   1.25   0.13   0.13   0.12   0.04   0.04   0.03   0.02   0.01   0.00   0.00       0       2
 1999 276    44    41    2.7      0   0.04     21      8      0     26     29      0     0.0  0.000      0      0  0.000  0.000  0.000  0.000    5.72   0.00   0.00      0      0  204.9   0.11   0.11    1.3   1.25   0.14   0.13   0.13   0.05   0.04   0.03   0.02   0.01   0.00   0.00       0       2
 1999 277    45    42    2.7      0   0.04     21      9      0     27     30      0     0.0  0.000      0      0  0.000  0.000  0.000  0.000    5.72   0.00   0.00      0      0  201.7   0.11   0.11    1.3   1.25   0.14   0.14   0.13   0.05   0.04   0.03   0.02   0.01   0.00   0.00       0       2
 1999 278    46    43    2.8      0   0.04     22      9      0     28     31      0     0.0  0.000      0      0  0.000  0.000  0.000  0.000    5.72   0.00   0.00      0      0  201.9   0.11   0.11    1.3   1.25   0.14   0.14   0.13   0.05   0.04   0.03   0.02   0.01   0.00   0.00       0       2
 1999 279    47    44    2.9      0   0.05     23     10      0     30     33      0     0.0  0.000      0      0  0.000  0.000  0.000  0.000    5.72   0.00   0.00      0      0  205.3   0.11   0.11    1.4   1.25   0.15   0.15   0.14   0.05   0.05   0.03   0.02   0.01   0.00   0.00       0       2
 1999 280    48    45    3.1      0   0.05     24     10      0     30     34      0     0.0  0.000      0      0  0.000  0.000  0.000  0.077    5.72   0.00   0.00      0      0  210.0   0.12   0.12    1.3   1.25   0.15   0.14   0.14   0.05   0.05   0.04   0.02   0.01   0.00   0.00       0       3
 1999 281    49    46    3.2      0   0.05     26     11      0     31     37      0     0.0  0.000      0      0  0.000  0.000  0.000  0.000    5.72   0.00   0.00      0      0  212.3   0.12   0.12    1.4   1.25   0.16   0.15   0.15   0.06   0.05   0.04   0.02   0.01   0.00   0.00       0       3
 1999 282    50    47    3.3      0   0.06     28     12      0     33     40      0     0.0  0.000      0      0  0.000  0.000  0.000  0.000    5.72   0.00   0.00      0      0  210.4   0.13   0.12    1.4   1.25   0.17   0.16   0.16   0.06   0.05   0.04   0.03   0.01   0.00   0.00       0       3
 1999 283    51    48    3.4      0   0.06     30     14      0     35     44      0     0.0  0.000      0      0  0.000  0.000  0.000  0.000    5.72   0.00   0.00      0      0  208.1   0.13   0.13    1.5   1.25   0.18   0.17   0.17   0.06   0.06   0.04   0.03   0.01   0.00   0.00       0       3
 1999 284    52    49    3.5      0   0.07     33     16      0     39     49      0     0.0  0.000      0      0  0.000  0.000  0.000  0.000    5.72   0.00   0.00      0      0  207.9   0.13   0.13    1.7   1.25   0.19   0.18   0.18   0.07   0.06   0.05   0.03   0.02   0.00   0.00       0       3
 1999 285    53    50    3.7      0   0.07     34     17      0     40     51      0     0.0  0.000      0      0  0.000  0.000  0.000  0.028    5.72   0.00   0.00      0      0  213.4   0.14   0.14    1.7   1.25   0.20   0.18   0.19   0.07   0.06   0.05   0.03   0.02   0.00   0.00       0       3
 1999 286    54    51    3.8      0   0.08     35     18      0     41     53      0     0.0  0.000      0      0  0.000  0.000  0.000  0.073    5.72   0.00   0.00      0      0  220.0   0.15   0.14    1.7   1.25   0.20   0.19   0.19   0.07   0.07   0.05   0.03   0.02   0.00   0.00       0       4
 1999 287    55    52    3.9      0   0.08     37     19      0     42     55      0     0.0  0.000      0      0  0.000  0.000  0.000  0.000    5.72   0.00   0.00      0      0  220.9   0.15   0.15    1.7   1.25   0.21   0.19   0.19   0.08   0.07   0.05   0.04   0.02   0.00   0.00       0       4
 1999 288    56    53    4.1      0   0.09     39     21      0     45     59      0     0.0  0.000      0      0  0.000  0.000  0.000  0.000    5.72   0.00   0.00      0      0  228.3   0.15   0.15    1.8   1.25   0.22   0.20   0.21   0.08   0.07   0.06   0.04   0.02   0.00   0.00       0       4
 1999 289    57    54    4.2      0   0.10     42     24      0     49     66      0     0.0  0.000      0      0  0.000  0.000  0.000  0.000    5.72   0.00   0.00      0      0  227.0   0.16   0.15    2.0   1.25   0.24   0.22   0.22   0.09   0.08   0.06   0.04   0.02   0.00   0.00       0       4
 1999 290    58    55    4.4      0   0.10     46     29      0     55     75      0     0.0  0.000      0      0  0.000  0.000  0.000  0.000    5.72   0.00   0.00      0      0  225.8   0.17   0.15    2.2   1.25   0.26   0.25   0.25   0.10   0.09   0.07   0.05   0.02   0.00   0.00       0       5
 1999 291    59    56    4.6      0   0.11     49     35      0     62     85      0     0.0  0.000      0      0  0.000  0.000  0.000  0.000    5.73   0.00   0.00      0      0  227.5   0.17   0.15    2.6   1.25   0.29   0.28   0.28   0.11   0.10   0.08   0.06   0.03   0.00   0.00       0       5
 1999 292    60    57    4.8      0   0.12     53     42      0     69     95      0     0.0  0.000      0      0  0.000  0.000  0.000  0.000    5.73   0.00   0.00      0      0  226.6   0.18   0.15    2.9   1.25   0.32   0.31   0.31   0.13   0.11   0.09   0.06   0.03   0.00   0.00       0       5
 1999 293    61    58    5.0      0   0.13     57     50      0     77    107      0     0.0  0.000      0      0  0.000  0.000  0.000  0.000    5.73   0.00   0.00      0      0  228.0   0.19   0.15    3.4   1.25   0.36   0.34   0.34   0.14   0.13   0.10   0.07   0.04   0.00   0.00       0       6
 1999 294    62    59    5.2      0   0.15     65     55      0     82    120      0     0.0  0.000      0      0  0.000  0.000  0.000  0.000    5.73   0.00   0.00      0      0  233.5   0.20   0.15    3.6   1.25   0.38   0.36   0.37   0.15   0.13   0.11   0.08   0.04   0.00   0.00       0       6
 1999 295    63    60    5.3      0   0.17     72     61      0     87    133      0     0.0  0.000      0      0  0.000  0.000  0.000  0.000    5.72   0.00   0.00      0      0  235.4   0.21   0.15    3.9   1.25   0.40   0.39   0.39   0.16   0.14   0.12   0.08   0.04   0.00   0.00       0       7
 1999 296    64    61    5.5      0   0.19     80     66      0     92    146      0     0.0  0.000      0      0  0.000  0.000  0.000  0.000    5.72   0.00   0.00      0      0  239.1   0.22   0.15    4.2   1.25   0.42   0.41   0.41   0.17   0.15   0.12   0.09   0.04   0.00   0.00       0       7
 1999 297    65    62    5.7      0   0.21     87     72      0     97    160      0     0.0  0.000      0      0  0.000  0.000  0.000  0.000    5.72   0.00   0.00      0      0  244.5   0.22   0.15    4.4   1.25   0.44   0.43   0.43   0.18   0.16   0.13   0.09   0.05   0.00   0.00       0       8
 1999 298    66    63    5.9      0   0.24     96     79      0    103    175      0     0.0  0.000      0      0  0.000  0.000  0.000  0.000    5.72   0.00   0.00      0      0  252.8   0.23   0.15    4.7   1.25   0.47   0.45   0.46   0.19   0.17   0.14   0.10   0.05   0.00   0.00       0       8
 1999 299    67    64    6.0      0   0.28    110     91      0    112    200      0     0.0  0.000      0      0  0.000  0.000  0.000  0.000    5.72   0.00   0.00      0      0  251.4   0.24   0.15    5.2   1.25   0.51   0.50   0.50   0.21   0.19   0.15   0.11   0.05   0.00   0.00       0       9
 1999 300    68    65    6.2      0   0.32    126    104      0    123    229      0     0.0  0.000      0      0  0.000  0.000  0.000  0.000    5.72   0.00   0.00      0      0  254.3   0.25   0.15    5.7   1.25   0.56   0.54   0.55   0.23   0.20   0.17   0.12   0.06   0.00   0.00       0      10
 1999 301    69    66    6.5      0   0.37    141    117      0    134    259      0     0.0  0.000      0      0  0.000  0.000  0.000  0.000    5.72   0.00   0.00      0      0  261.3   0.26   0.15    6.3   1.25   0.61   0.59   0.59   0.25   0.22   0.18   0.13   0.07   0.00   0.00       0      10
 1999 302    70    67    6.7      0   0.43    161    135      0    148    296      0     0.0  0.000      0      0  0.000  0.000  0.000  0.000    5.72   0.00   0.00      0      0  266.7   0.27   0.15    7.0   1.25   0.66   0.65   0.65   0.27   0.25   0.20   0.14   0.07   0.00   0.00       0      11
 1999 303    71    68    6.9      0   0.49    177    150      0    159    327      0     0.0  0.000      0      0  0.000  0.000  0.000  0.000    5.72   0.00   0.00      0      0  278.1   0.29   0.15    7.6   1.25   0.71   0.70   0.70   0.29   0.26   0.21   0.15   0.08   0.00   0.00       0      12
 1999 304    72    69    7.1      0   0.56    200    171      0    174    371      0     0.0  0.000      0      0  0.000  0.000  0.000  0.000    5.72   0.00   0.00      0      0  282.7   0.30   0.15    8.4   1.25   0.78   0.76   0.77   0.32   0.29   0.24   0.17   0.09   0.00   0.00       0      13
 1999 305    73    70    7.3      0   0.63    215    186      0    185    401      0     0.0  0.000      0      0  0.000  0.000  0.000  0.000    5.72   0.00   0.00      0      0  293.9   0.31   0.15    9.0   1.25   0.83   0.81   0.81   0.34   0.31   0.25   0.18   0.09   0.00   0.00       0      15
 1999 306    74    71    7.6      1   0.71    245    216      0    206    461      0     0.0  0.000      0      0  0.000  0.000  0.000  0.000    5.72   0.00   0.00      0      0  291.5   0.32   0.15   10.1   1.25   0.92   0.90   0.90   0.38   0.34   0.28   0.20   0.10   0.00   0.00       0      16
 1999 307    75    72    7.7      1   0.79    274    247      0    227    521      0     0.0  0.000      0      0  0.000  0.000  0.000  0.000    5.72   0.00   0.00      0      0  287.3   0.33   0.15   11.1   1.25   1.01   0.99   0.99   0.42   0.38   0.31   0.22   0.11   0.00   0.00       0      17
 1999 308    76    73    7.9      1   0.82    285    259      0    234    544      0     0.0  0.000      0      0  0.000  0.000  0.000  0.000    5.71   0.00   0.00      0      0  285.8   0.33   0.15   11.3   1.25   1.04   1.02   1.03   0.43   0.39   0.32   0.23   0.12   0.00   0.00       0      18
 1999 309    77    74    8.0      1   0.87    317    293      0    257    610      0     0.0  0.000      0      0  0.000  0.000  0.000  0.000    5.70   0.00   0.00      0      0  274.2   0.34   0.15   12.4   1.25   1.13   1.12   1.12   0.48   0.43   0.35   0.25   0.13   0.00   0.00       0      19
 1999 310    78    75    8.2      1   0.94    356    338      0    285    694      0     0.0  0.000      0      0  0.000  0.000  0.000  0.000    5.70   0.00   0.00      0      0  264.1   0.35   0.15   13.7   1.25   1.26   1.24   1.25   0.53   0.48   0.39   0.28   0.14   0.00   0.00       1      20
 1999 311    79    76    8.3      1   1.00    379    365      0    301    744      0     0.0  0.000      0      0  0.000  0.000  0.000  0.000    5.71   0.00   0.00      0      0  262.6   0.35   0.15   14.5   1.25   1.33   1.31   1.32   0.56   0.50   0.41   0.29   0.15   0.00   0.00       2      22
 1999 312    80    77    8.4      1   1.03    406    396      0    321    803      0     0.0  0.000      0      0  0.000  0.000  0.000  0.000    5.71   0.00   0.00      0      0  253.3   0.36   0.15   15.4   1.25   1.41   1.40   1.40   0.60   0.54   0.44   0.31   0.16   0.00   0.00       3      23
 1999 313    81    78    8.5      1   1.05    432    426      0    339    858      0     0.0  0.000      0      0  0.000  0.000  0.000  0.000    5.72   0.00   0.00      0      0  244.2   0.36   0.15   16.2   1.25   1.49   1.48   1.48   0.63   0.57   0.46   0.33   0.17   0.00   0.00       5      24
 1999 314    82    79    8.6      1   1.09    461    461      0    360    922      0     0.0  0.000      0      0  0.000  0.000  0.000  0.000    5.72   0.00   0.00      0      0  235.9   0.37   0.15   17.2   1.25   1.58   1.57   1.57   0.67   0.60   0.49   0.35   0.18   0.00   0.00       6      24
 1999 315    83    80    8.7      1   1.15    502    512      0    390   1013      0     0.0  0.000      0      0  0.000  0.000  0.000  0.000    5.73   0.00   0.00      0      0  229.0   0.37   0.15   18.5   1.25   1.71   1.70   1.70   0.72   0.65   0.53   0.38   0.20   0.00   0.00       9      26
 1999 316    84    81    8.9      1   1.23    548    570      0    423   1118      0     0.0  0.000      0      0  0.000  0.000  0.000  0.000    5.73   0.00   0.00      0      0  223.6   0.38   0.15   20.1   1.25   1.85   1.84   1.84   0.79   0.71   0.58   0.42   0.21   0.00   0.00      12      28
 1999 317    85    82    9.1      1   1.31    594    630      0    456   1224      0     0.0  0.000      0      0  0.000  0.000  0.000  0.000    5.75   0.00   0.00      0      0  221.2   0.39   0.15   21.9   1.25   2.00   1.98   1.99   0.85   0.76   0.62   0.45   0.23   0.00   0.00      16      31
 1999 318    86    83    9.3      1   1.40    639    691      0    489   1330      0     0.0  0.000      0      0  0.000  0.000  0.000  0.000    5.76   0.00   0.00      0      0  218.4   0.40   0.15   23.7   1.25   2.14   2.12   2.12   0.91   0.82   0.67   0.48   0.25   0.00   0.00      20      34
 1999 319    87    84    9.6      1   1.48    690    761      0    525   1450      0     0.0  0.000      0      0  0.000  0.000  0.000  0.000    5.77   0.00   0.00      0      0  214.8   0.41   0.15   25.9   1.25   2.29   2.28   2.28   0.98   0.88   0.72   0.52   0.27   0.00   0.00      27      37
 1999 320    88    85    9.8      3   1.56    740    836      0    564   1576      0     0.0  0.000      0      0  0.000  0.000  0.000  0.000    5.75   0.00   0.00      0      0  210.4   0.42   0.15   25.9   1.25   2.47   2.45   2.45   1.05   0.95   0.77   0.56   0.29   0.00   0.00      36      41
 1999 321    89    86   10.0      3   1.64    791    911      0    602   1702      0     0.0  0.000      0      0  0.000  0.000  0.000  0.000    5.72   0.00   0.00      0      0  206.9   0.43   0.15   25.9   1.25   2.63   2.61   2.62   1.12   1.01   0.82   0.59   0.31   0.00   0.00      40      45
 1999 322    90    87   10.2      3   1.72    841    988      0    638   1831      0     0.0  0.000      2     17  0.000  0.000  0.000  0.000    5.69   0.00   0.00      0      2  204.1   0.44   0.15   25.9   1.25   2.79   2.77   2.77   1.19   1.07   0.88   0.63   0.33   0.00   0.00      45      49
 1999 323    91    88   10.4      3   1.79    886   1062      0    673   1958      0     0.0  0.000     10     51  0.000  0.000  0.000  0.000    5.62   0.00   0.00      0     10  202.1   0.45   0.15   30.2   1.25   2.94   2.92   2.93   1.25   1.13   0.92   0.67   0.34   0.00   0.00      50      53
 1999 324    92    89   10.6      3   1.87    933   1141      0    708   2094      0     0.0  0.000     20     72  0.000  0.000  0.000  0.000    5.52   0.00   0.01      0     20  200.1   0.46   0.15   35.2   1.25   3.09   3.08   3.08   1.32   1.19   0.97   0.70   0.36   0.00   0.00      55      58
 1999 325    93    90   10.8      3   1.94    989   1234      0    749   2257      0     0.0  0.000     33    100  0.000  0.000  0.000  0.000    5.41   0.00   0.01      0     33  195.9   0.47   0.15   41.0   1.25   3.27   3.26   3.26   1.40   1.26   1.03   0.74   0.38   0.00   0.00      60      62
 1999 326    94    91   11.0      3   1.97   1033   1329      0    804   2413      0     0.0  0.000     51    132  0.000  0.000  0.178  0.000    5.29   0.00   0.02      0     51  190.9   0.48   0.15   47.7   1.25   3.51   3.50   3.50   1.50   1.35   1.11   0.80   0.41   0.00   0.00      65      67
 1999 327    95    92   11.2      3   2.02   1063   1384      0    827   2518      0     0.0  0.000     71    149  0.000  0.000  0.000  0.000    5.27   0.00   0.03      0     71  189.9   0.49   0.15   47.9   1.25   3.61   3.60   3.60   1.54   1.39   1.14   0.82   0.42   0.00   0.00      69      71
 1999 328    96    93   11.4      3   2.06   1104   1469      0    865   2667      0     0.0  0.000     93    164  0.000  0.000  0.071  0.000    5.18   0.00   0.03      0     93  186.8   0.50   0.15   55.6   1.25   3.78   3.77   3.77   1.61   1.46   1.19   0.86   0.44   0.00   0.00      75      77
 1999 329    97    94   11.6      3   2.11   1146   1547      0    895   2810      0     0.0  0.000    117    189  0.000  0.000  0.000  0.000    5.17   0.00   0.04      0    117  183.8   0.51   0.15   58.3   1.25   3.91   3.90   3.90   1.67   1.51   1.23   0.89   0.46   0.00   0.00      80      82
 1999 330    98    95   11.8      3   2.14   1161   1580      0    906   2889      0     0.0  0.000    147    218  0.000  0.000  0.000  0.000    5.14   0.00   0.05      0    147  183.9   0.52   0.15   58.5   1.25   3.96   3.95   3.95   1.69   1.53   1.25   0.90   0.47   0.00   0.00      85      87
 1999 331    99    96   12.0      3   2.16   1196   1663      0    945   3040      0     0.0  0.000    182    251  0.000  0.000  0.134  0.000    5.06   0.00   0.06      0    182  180.9   0.53   0.15   67.7   1.25   4.13   4.12   4.12   1.77   1.59   1.30   0.94   0.49   0.00   0.00      90      93
 1999 332   100    97   12.2      3   2.19   1235   1756      0    987   3212      0     0.0  0.000    220    295  0.000  0.000  0.112  0.000    4.97   0.00   0.07      0    220  177.2   0.54   0.15   78.7   1.25   4.31   4.30   4.30   1.84   1.66   1.36   0.98   0.51   0.00   0.00      96     100
 1999 333   101    98   12.5      3   2.22   1274   1838      0   1015   3376      0     0.0  0.000    263    334  0.000  0.000  0.000  0.000    4.94   0.00   0.08      0    263  174.2   0.55   0.15   88.6   1.25   4.44   4.43   4.43   1.90   1.71   1.40   1.01   0.52   0.00   0.00     102     107
 1999 334   102    99   12.7      3   2.25   1313   1921      0   1042   3546      0     0.0  0.000    311    384  0.000  0.000  0.000  0.000    4.88   0.00   0.09      0    311  171.5   0.56   0.15  103.4   1.25   4.56   4.55   4.55   1.95   1.76   1.44   1.04   0.54   0.00   0.00     108     115
 1999 335   103   100   13.0      3   2.27   1332   1969      0   1055   3671      0     0.0  0.000    370    443  0.000  0.000  0.000  0.000    4.84   0.00   0.10      0    370  170.5   0.58   0.15  103.4   1.25   4.62   4.61   4.61   1.98   1.78   1.46   1.05   0.54   0.00   0.00     115     124
 1999 336   104   101   13.2      3   2.27   1331   1973      0   1053   3740      0     0.0  0.000    436    498  0.000  0.000  0.000  0.006    4.82   0.00   0.12      0    436  170.5   0.59   0.15  103.4   1.25   4.59   4.61   4.61   1.98   1.78   1.46   1.05   0.54   0.00   0.00     119     130
 1999 337   105   102   13.4      3   2.28   1352   2025      0   1068   3881      0     0.0  0.000    505    521  0.000  0.000  0.000  0.000    4.80   0.00   0.13      0    505  168.6   0.60   0.15  103.4   1.25   4.65   4.67   4.68   2.01   1.81   1.48   1.07   0.55   0.00   0.00     125     136
 1999 338   106   103   13.6      3   2.29   1381   2096      0   1089   4056      0     0.0  0.000    579    564  0.000  0.000  0.000  0.000    4.78   0.00   0.14      0    579  165.9   0.61   0.15  103.4   1.25   4.75   4.77   4.77   2.04   1.84   1.51   1.09   0.56   0.00   0.00     131     144
 1999 339   107   104   13.7      3   2.29   1384   2114      0   1089   4153      0     0.0  0.000    654    627  0.000  0.000  0.000  0.000    4.75   0.00   0.16      0    654  165.3   0.62   0.15  103.5   1.25   4.75   4.77   4.77   2.05   1.85   1.51   1.09   0.56   0.00   0.00     135     149
 1999 340   108   105   13.9      3   2.29   1407   2170      0   1106   4297      0     0.0  0.000    720    649  0.000  0.000  0.000  0.000    4.75   0.00   0.17      0    720  162.8   0.62   0.15  105.2   1.25   4.82   4.84   4.84   2.08   1.87   1.53   1.11   0.57   0.00   0.00     138     153
 1999 341   109   106   14.0      5   2.29   1423   2212      0   1117   4423      0     0.0  0.000    788    668  0.000  0.000  0.000  0.000    4.74   0.00   0.18      0    788  161.0   0.63   0.15  106.5   1.25   4.87   4.89   4.90   2.10   1.89   1.55   1.12   0.58   0.00   0.00     142     158
 1999 342   110   107   14.2      5   2.29   1450   2285      0   1138   4598      0     0.0  0.000    863    684  0.000  0.000  0.000  0.000    4.72   0.00   0.19      0    863  158.0   0.63   0.15  109.3   1.25   4.97   4.99   4.99   2.14   1.93   1.58   1.14   0.59   0.00   0.00     148     164
 1999 343   111   108   14.4      5   2.29   1478   2361      0   1157   4761     20     0.0  0.000    923    703  0.000  0.000  0.000  0.000    4.70   0.00   0.19      0    923  155.1   0.64   0.15  111.7   1.25   4.97   5.08   5.08   2.18   1.97   1.61   1.16   0.60   0.00   0.00     174     172
 1999 344   112   109   14.6      5   2.29   1502   2432      1   1175   4900     58     2.4  0.000    966    729  0.000  0.000  0.000  0.000    4.69   0.15   0.20      0    966  152.5   0.65   0.15  112.0   1.25   5.05   5.16   5.17   2.22   2.00   1.64   1.18   0.61   0.00   0.00     221     180
 1999 345   113   110   14.8      5   2.29   1518   2483      6   1186   5031     81     6.8  0.001   1031    765  0.000  0.000  0.000  0.000    4.67   0.54   0.20      0   1031  150.7   0.66   0.15  112.1   1.25   5.11   5.22   5.22   2.24   2.02   1.65   1.19   0.62   0.00   0.00     253     189
 1999 346   114   111   15.1      5   2.28   1513   2487     12   1184   5097    111    10.3  0.002   1096    793  0.000  0.000  0.000  0.000    4.64   1.05   0.21      0   1096  150.3   0.67   0.15  112.1   1.25   5.10   5.21   5.21   2.23   2.02   1.65   1.19   0.62   0.00   0.00     294     197
 1999 347   115   112   15.3      5   2.26   1511   2496     20   1182   5167    146    13.4  0.004   1160    819  0.000  0.000  0.000  0.000    4.62   1.69   0.22      0   1160  149.8   0.68   0.15  112.1   1.25   5.10   5.21   5.21   2.23   2.02   1.65   1.19   0.62   0.00   0.00     340     205
 1999 348   116   113   15.5      5   2.26   1527   2550     30   1194   5321    165    18.1  0.006   1243    850  0.000  0.000  0.000  0.000    4.61   2.41   0.23      0   1243  147.7   0.69   0.15  112.1   1.25   5.15   5.26   5.26   2.26   2.04   1.67   1.20   0.62   0.00   0.00     369     213
 1999 349   117   114   15.7      5   2.25   1539   2597     42   1202   5470    182    22.9  0.008   1334    897  0.000  0.000  0.000  0.000    4.60   3.12   0.24      0   1334  145.9   0.70   0.15  114.9   1.25   5.19   5.30   5.30   2.27   2.05   1.68   1.21   0.63   0.00   0.00     394     222
 1999 350   118   115   16.0      5   2.24   1551   2644     54   1210   5609    210    25.7  0.010   1414    944  0.000  0.000  0.000  0.000    4.59   3.82   0.25      0   1414  144.1   0.71   0.15  120.0   1.25   5.23   5.33   5.34   2.29   2.06   1.69   1.22   0.63   0.00   0.00     430     231
 1999 351   119   116   16.2      5   2.22   1557   2678     69   1214   5729    243    28.3  0.012   1494    981  0.000  0.000  0.000  0.000    4.57   4.59   0.26      0   1494  142.6   0.72   0.15  120.0   1.25   5.24   5.36   5.36   2.30   2.07   1.70   1.23   0.63   0.00   0.00     471     241
 1999 352   120   117   16.5      5   2.20   1558   2700     85   1214   5824    281    30.1  0.015   1566   1015  0.000  0.000  0.000  0.000    4.55   5.40   0.27      0   1566  141.4   0.73   0.15  120.0   1.25   5.21   5.37   5.37   2.30   2.08   1.70   1.23   0.63   0.00   0.00     518     251
 1999 353   121   118   16.7      5   2.19   1558   2720    105   1215   5917    330    31.8  0.018   1640   1044  0.000  0.000  0.000  0.000    4.52   6.40   0.28      0   1640  140.4   0.74   0.15  120.0   1.25   5.22   5.37   5.37   2.31   2.08   1.70   1.23   0.64   0.00   0.00     576     261
 1999 354   122   119   16.9      5   2.17   1562   2752    127   1219   6027    376    33.8  0.021   1712   1084  0.000  0.000  0.000  0.000    4.50   7.41   0.28      0   1712  139.0   0.75   0.15  120.0   1.25   5.24   5.39   5.40   2.32   2.09   1.71   1.24   0.64   0.00   0.00     628     269
 1999 355   123   120   17.1      5   2.16   1557   2755    153   1216   6090    434    35.2  0.025   1778   1101  0.000  0.000  0.000  0.000    4.47   8.60   0.29      0   1778  138.5   0.76   0.15  120.0   1.25   5.23   5.38   5.39   2.31   2.08   1.71   1.23   0.64   0.00   0.00     692     279
 1999 356   124   121   17.3      5   2.14   1556   2772    184   1216   6174    503    36.6  0.030   1846   1117  0.000  0.000  0.000  0.000    4.45   9.97   0.30      0   1846  137.6   0.76   0.15  122.7   1.25   5.24   5.39   5.39   2.31   2.09   1.71   1.23   0.64   0.00   0.00     766     287
 1999 357   125   122   17.3      5   2.13   1559   2800    215   1221   6264    566    38.0  0.034   1905   1142  0.000  0.000  0.000  0.000    4.42  11.29   0.30      0   1905  136.3   0.77   0.15  124.9   1.25   5.26   5.41   5.42   2.32   2.10   1.72   1.24   0.64   0.00   0.00     835     294
 1999 358   126   123   17.3      5   2.11   1556   2811    252   1220   6371    593    42.4  0.039   2004   1163  0.000  0.000  0.000  0.000    4.40  12.55   0.31      0   2004  135.6   0.78   0.15  124.9   1.25   5.26   5.41   5.42   2.32   2.10   1.72   1.24   0.64   0.00   0.00     869     303
 1999 359   127   124   17.3      5   2.10   1555   2824    287   1219   6456    643    44.7  0.045   2076   1182  0.000  0.000  0.000  0.000    4.39  13.84   0.32      0   2076  134.8   0.79   0.15  124.9   1.25   5.26   5.41   5.41   2.32   2.10   1.72   1.24   0.64   0.00   0.00     924     313
 1999 360   128   125   17.3      5   2.08   1546   2818    322   1213   6479    716    44.9  0.050   2114   1193  0.000  0.000  0.000  0.000    4.36  15.22   0.33      0   2114  134.6   0.80   0.15  124.9   1.25   5.24   5.39   5.39   2.31   2.09   1.71   1.23   0.64   0.00   0.00    1003     323
 1999 361   129   126   17.3      5   2.07   1535   2804    360   1204   6542    741    48.6  0.055   2203   1210  0.000  0.000  0.000  0.000    4.35  16.36   0.34      0   2203  134.6   0.80   0.15  124.9   1.25   5.21   5.35   5.36   2.30   2.07   1.70   1.23   0.63   0.00   0.00    1035     334
 1999 362   130   127   17.3      5   2.05   1518   2778    416   1194   6545    785    53.0  0.064   2249   1220  0.000  0.000  0.000  0.000    4.31  18.50   0.34      0   2249  135.0   0.80   0.15  124.9   1.25   5.17   5.31   5.32   2.28   2.06   1.69   1.22   0.63   0.00   0.00    1080     343
 1999 363   131   128   17.3      5   2.03   1501   2753    474   1184   6591    818    58.0  0.072   2337   1232  0.000  0.000  0.000  0.000    4.28  20.30   0.35      0   2337  135.3   0.80   0.15  124.9   1.25   5.13   5.28   5.28   2.27   2.04   1.67   1.21   0.62   0.00   0.00    1115     351
 1999 364   132   129   17.3      5   2.01   1483   2728    535   1175   6591    871    61.4  0.081   2380   1242  0.000  0.000  0.000  0.000    4.24  22.49   0.36      0   2380  135.7   0.80   0.15  124.9   1.25   5.10   5.24   5.24   2.25   2.03   1.66   1.20   0.62   0.00   0.00    1164     360
 1999 365   133   130   17.3      5   1.99   1469   2713    596   1168   6667    932    64.0  0.089   2484   1243  0.000  0.000  0.000  0.000    4.20  23.99   0.37      0   2484  135.7   0.80   0.15  130.9   1.25   5.07   5.21   5.22   2.24   2.02   1.65   1.19   0.62   0.00   0.00    1217     368
 2000 001   134   131   17.3      5   1.98   1459   2707    660   1164   6760    986    66.9  0.098   2594   1255  0.000  0.000  0.000  0.000    4.16  25.44   0.38      0   2594  135.5   0.80   0.15  131.0   1.25   5.06   5.20   5.20   2.23   2.01   1.65   1.19   0.62   0.00   0.00    1265     376
 2000 002   135   132   17.3      5   1.96   1445   2692    728   1157   6843   1040    70.0  0.106   2706   1267  0.000  0.000  0.000  0.000    4.12  26.91   0.40      0   2706  135.5   0.80   0.15  131.0   1.25   5.03   5.17   5.18   2.22   2.00   1.64   1.18   0.61   0.00   0.00    1312     384
 2000 003   136   133   17.3      5   1.94   1434   2684    799   1152   6933   1093    73.1  0.115   2816   1277  0.000  0.000  0.000  0.000    4.09  28.38   0.41      0   2816  135.3   0.80   0.15  131.0   1.25   5.02   5.16   5.16   2.21   2.00   1.63   1.18   0.61   0.00   0.00    1358     392
 2000 004   137   134   17.3      5   1.92   1420   2670    873   1146   7003   1163    75.1  0.125   2912   1280  0.000  0.000  0.000  0.000    4.05  29.98   0.42      0   2912  135.3   0.80   0.15  131.0   1.25   4.99   5.13   5.13   2.20   1.99   1.63   1.18   0.61   0.00   0.00    1416     400
 2000 005   138   135   17.3      5   1.90   1404   2648    953   1136   7061   1239    76.9  0.135   3008   1278  0.000  0.000  0.000  0.000    4.00  31.68   0.43      0   3008  135.6   0.80   0.15  131.0   1.25   4.95   5.09   5.10   2.19   1.97   1.62   1.17   0.60   0.00   0.00    1477     409
 2000 006   139   136   17.3      5   1.89   1390   2632   1035   1129   7130   1305    79.3  0.145   3108   1282  0.000  0.000  0.000  0.000    3.96  33.29   0.44      0   3108  135.7   0.80   0.15  131.0   1.25   4.92   5.06   5.07   2.17   1.96   1.61   1.16   0.60   0.00   0.00    1530     418
 2000 007   140   137   17.3      5   1.87   1375   2613   1119   1120   7196   1369    81.7  0.155   3207   1283  0.000  0.000  0.000  0.000    3.92  34.88   0.45      0   3207  135.9   0.80   0.15  131.0   1.25   4.88   5.03   5.03   2.16   1.95   1.59   1.15   0.60   0.00   0.00    1579     427
 2000 008   141   138   17.3      5   1.85   1363   2601   1203   1113   7266   1434    83.9  0.166   3301   1284  0.000  0.000  0.000  0.000    3.89  36.44   0.45      0   3301  135.9   0.80   0.15  131.0   1.25   4.86   5.00   5.00   2.15   1.94   1.59   1.14   0.59   0.00   0.00    1628     436
 2000 009   142   139   17.3      5   1.84   1348   2579   1291   1103   7292   1508    85.6  0.177   3365   1278  0.000  0.000  0.000  0.000    3.86  38.37   0.46      0   3365  136.2   0.80   0.15  131.0   1.25   4.82   4.96   4.96   2.13   1.92   1.57   1.14   0.59   0.00   0.00    1683     446
 2000 010   143   140   17.3      5   1.82   1330   2555   1392   1092   7346   1561    89.2  0.190   3461   1275  0.000  0.000  0.000  0.000    3.81  40.23   0.47      0   3461  136.6   0.80   0.15  131.0   1.25   4.76   4.92   4.92   2.11   1.90   1.56   1.13   0.58   0.00   0.00    1724     456
 2000 011   144   141   17.3      5   1.80   1313   2531   1496   1082   7414   1618    92.4  0.202   3570   1273  0.000  0.000  0.000  0.000    3.76  41.89   0.48      0   3570  137.0   0.80   0.15  131.0   1.25   4.72   4.88   4.88   2.09   1.89   1.55   1.12   0.58   0.00   0.00    1764     465
 2000 012   145   142   17.3      5   1.78   1297   2509   1599   1073   7438   1728    92.5  0.215   3632   1255  0.000  0.000  0.000  0.000    3.71  44.03   0.49      0   3632  137.3   0.80   0.15  131.0   1.25   4.68   4.84   4.84   2.08   1.87   1.53   1.11   0.57   0.00   0.00    1832     474
 2000 013   146   143   17.3      5   1.76   1282   2491   1705   1064   7500   1780    95.8  0.227   3728   1252  0.000  0.000  0.000  0.000    3.67  45.73   0.50      0   3728  137.6   0.80   0.15  131.0   1.25   4.64   4.80   4.80   2.06   1.86   1.52   1.10   0.57   0.00   0.00    1867     483
 2000 014   147   144   17.3      5   1.75   1266   2469   1786   1055   7503   1837    97.2  0.238   3768   1248  0.000  0.000  0.000  0.008    3.61  47.38   0.50      0   3768  137.9   0.80   0.15  130.2   1.25   4.61   4.76   4.75   2.04   1.84   1.51   1.09   0.56   0.00   0.00    1904     492
 2000 015   148   145   17.3      5   1.73   1248   2449   1907   1045   7557   1874   101.7  0.252   3859   1238  0.000  0.000  0.000  0.000    3.55  49.40   0.51      0   3859  138.2   0.80   0.15  130.2   1.25   4.57   4.72   4.71   2.03   1.83   1.50   1.08   0.56   0.00   0.00    1931     502
 2000 016   149   146   17.3      5   1.71   1231   2429   2025   1035   7609   1911   105.9  0.266   3949   1228  0.000  0.000  0.000  0.000    3.49  51.28   0.52      0   3949  138.5   0.80   0.15  130.2   1.25   4.53   4.68   4.67   2.01   1.81   1.48   1.07   0.55   0.00   0.00    1957     511
 2000 017   150   147   17.3      5   1.69   1214   2407   2103   1025   7622   1944   108.2  0.276   4000   1220  0.000  0.000  0.000  0.000    3.43  52.56   0.52      0   4000  138.9   0.80   0.15  125.1   1.25   4.49   4.64   4.63   1.99   1.80   1.47   1.06   0.55   0.00   0.00    1980     524
 2000 018   151   148   17.3      5   1.67   1199   2391   2240   1016   7687   2013   111.3  0.291   4098   1203  0.000  0.000  0.000  0.000    3.36  54.67   0.53      0   4098  139.1   0.80   0.15  125.1   1.25   4.46   4.60   4.59   1.98   1.78   1.46   1.05   0.55   0.00   0.00    2018     532
 2000 019   152   149   17.3      5   1.65   1183   2374   2373   1008   7762   2056   115.4  0.306   4205   1193  0.000  0.000  0.000  0.000    3.30  56.44   0.54      0   4205  139.4   0.80   0.15  125.1   1.25   4.42   4.57   4.56   1.96   1.77   1.45   1.05   0.54   0.00   0.00    2042     540
 2000 020   153   150   17.3      5   1.63   1169   2358   2500    999   7835   2098   119.1  0.319   4309   1184  0.000  0.000  0.000  0.000    3.23  58.01   0.55      0   4309  139.6   0.80   0.15  125.1   1.25   4.39   4.53   4.52   1.95   1.76   1.44   1.04   0.54   0.00   0.00    2063     548
 2000 021   154   151   17.3      5   1.61   1154   2342   2606    990   7891   2139   121.8  0.330   4395   1175  0.000  0.000  0.000  0.000    3.17  59.28   0.56      0   4395  139.9   0.80   0.15  125.1   1.25   4.35   4.49   4.48   1.93   1.74   1.43   1.03   0.53   0.00   0.00    2081     557
 2000 022   155   152   17.3      5   1.60   1139   2323   2682    982   7913   2208   121.5  0.339   4450   1159  0.000  0.000  0.000  0.000    3.11  60.28   0.56      0   4450  140.2   0.80   0.15  125.1   1.25   4.31   4.46   4.45   1.91   1.73   1.41   1.02   0.53   0.00   0.00    2101     565
 2000 023   156   153   17.3      5   1.58   1126   2309   2802    973   7989   2235   125.4  0.351   4554   1146  0.000  0.000  0.000  0.000    3.05  61.53   0.57      0   4554  140.5   0.80   0.15  125.1   1.25   4.27   4.42   4.41   1.90   1.71   1.40   1.01   0.52   0.00   0.00    2116     573
 2000 024   157   154   17.3      5   1.57   1112   2294   2903    965   8048   2250   129.0  0.361   4641   1131  0.000  0.000  0.000  0.000    2.99  62.56   0.58      0   4641  140.7   0.80   0.15  125.1   1.25   4.24   4.39   4.38   1.88   1.70   1.39   1.01   0.52   0.00   0.00    2129     580
 2000 025   158   155   17.3      7   1.55   1103   2293   3022    958   8144   2259   133.8  0.371   4748   1113  0.000  0.000  0.224  0.000    2.92  63.64   0.58      0   4748  140.6   0.80   0.15  125.1   1.25   4.21   4.36   4.35   1.87   1.69   1.38   1.00   0.52   0.00   0.00    2140     587
 2000 026   159   156   17.3      7   1.23    880   2191   3121    951   7911   2259   138.2  0.395   4840   1095  0.000  0.000  0.373  0.000    2.82  64.49   0.61      0   4840  140.0   0.80   0.15  125.1   1.25   4.18   4.33   4.32   1.86   1.68   1.37   0.99   0.51   0.00   0.00    2488     594
 2000 027   160   157   17.3      7   0.98    699   2082   3221    944   7713   2259   142.6  0.418   4932   1081  0.000  0.000  0.170  0.000    2.74  65.32   0.64      0   4932  140.1   0.80   0.15  125.1   1.25   4.15   4.30   4.29   1.84   1.66   1.36   0.98   0.51   0.00   0.00    2767     600
 2000 028   161   158   17.3      7   0.78    556   1998   3297    936   7554   2259   146.0  0.436   5000   1065  0.000  0.000  0.236  0.000    2.66  65.93   0.66      0   5000  140.1   0.80   0.15  125.1   1.25   4.12   4.26   4.25   1.83   1.65   1.35   0.98   0.50   0.00   0.00    2987     608
 2000 029   162   159   17.3      7   0.62    441   1922   3356    929   7416   2259   148.6  0.453   5053   1050  0.000  0.000  0.000  0.000    2.59  66.42   0.68      0   5053  140.6   0.80   0.15  125.1   1.25   4.08   4.23   4.22   1.82   1.64   1.34   0.97   0.50   0.00   0.00    3163     615
 2000 030   163   160   17.3      7   0.49    350   1861   3377    921   7281   2259   149.5  0.464   5069   1027  0.000  0.000  0.000  0.000    2.55  66.63   0.70      0   5069  141.0   0.80   0.15  116.4   1.25   4.05   4.20   4.19   1.80   1.63   1.33   0.96   0.50   0.00   0.00    3302     631
 2000 031   164   161   17.3      7   0.39    278   1812   3403    914   7179   2259   150.6  0.474   5089   1027  0.000  0.000  0.000  0.000    2.49  66.87   0.71      0   5089  141.4   0.80   0.15  108.2   1.25   4.02   4.17   4.16   1.79   1.61   1.32   0.95   0.49   0.00   0.00    3413     646
 2000 032   165   162   17.3      7   0.31    221   1772   3413    907   7091   2259   151.1  0.481   5097   1027  0.000  0.000  0.000  0.000    2.47  66.97   0.72      0   5097  141.8   0.80   0.15  100.6   1.25   3.99   4.14   4.13   1.78   1.60   1.31   0.95   0.49   0.00   0.00    3501     660
 2000 033   166   163   17.3      7   0.25    177   1741   3413    900   7014   2259   151.1  0.487   5097   1027  0.000  0.000  0.000  0.000    2.48  66.97   0.73      0   5097  142.2   0.80   0.15   93.6   1.25   3.96   4.11   4.09   1.76   1.59   1.30   0.94   0.49   0.00   0.00    3571     674
 2000 034   167   164   17.3      7   0.20    141   1715   3414    893   6953   2259   151.1  0.491   5097   1027  0.000  0.000  0.000  0.000    2.48  66.97   0.73      0   5097  142.5   0.80   0.15   87.0   1.25   3.93   4.07   4.06   1.75   1.58   1.29   0.93   0.48   0.00   0.00    3627     688
 2000 035   168   165   17.3      7   0.16    112   1694   3419    887   6907   2259   151.4  0.495   5101   1027  0.000  0.000  0.000  0.000    2.48  67.03   0.74      0   5101  142.8   0.80   0.15   80.9   1.25   3.90   4.04   4.03   1.74   1.57   1.28   0.93   0.48   0.00   0.00    3671     700
 2000 036   169   166   17.3      7   0.13     90   1676   3419    880   6867   2259   151.4  0.498   5101   1027  0.000  0.000  0.000  0.000    2.48  67.03   0.74      0   5101  143.1   0.80   0.15   75.3   1.25   3.87   4.01   4.00   1.72   1.55   1.27   0.92   0.48   0.00   0.00    3707     712
 2000 037   170   167   17.3      8   0.10     72   1661   3419    873   6834   2259   151.4  0.500   5101   1027  0.000  0.000  0.000  0.000    2.49  67.03   0.75      0   5101  143.5   0.80   0.15   70.0   1.25   3.84   3.98   3.97   1.71   1.54   1.26   0.91   0.47   0.00   0.00    3735     725

*DSSAT Cropping System Model Ver. 4.0.2.000               Aug 23, 2016; 16:35:33

*RUN   2        : UYSB                    
 MODEL          : CRGRO040 - Soybean         
 EXPERIMENT     : UYSB0221 SB    late to create DSS                             
 TREATMENT  1   : UYSB                    

@YEAR DOY   DAS   DAP   L#SD   GSTD   LAID   LWAD   SWAD   GWAD   RWAD   CWAD   G#AD    GWGD   HIAD   PWAD   P#AD   WSPD   WSGD   NSTD   EWSD    LN%D   SH%D   HIPD   PWDD   PWTD   SLAD   CHTD   CWID   NWAD   RDPD   RL1D   RL2D   RL3D   RL4D   RL5D   RL6D   RL7D   RL8D   RL9D   RL10   SNW0C   SNW1C
 2000 235     3     0    0.0      0   0.00      0      0      0      0      0      0     0.0  0.000      0      0  0.000  0.000  0.000  0.000    0.00   0.00   0.00      0      0    0.0   0.00   0.00    0.0   0.00   0.00   0.00   0.00   0.00   0.00   0.00   0.00   0.00   0.00   0.00       0       0
 2000 236     4     1    0.0      0   0.00      0      0      0      0      0      0     0.0  0.000      0      0  0.000  0.000  0.000  0.000    0.00   0.00   0.00      0      0    0.0   0.00   0.00    0.0   0.00   0.00   0.00   0.00   0.00   0.00   0.00   0.00   0.00   0.00   0.00       0       0
 2000 237     5     2    0.0      0   0.00      0      0      0      0      0      0     0.0  0.000      0      0  0.000  0.000  0.000  0.000    0.00   0.00   0.00      0      0    0.0   0.00   0.00    0.0   0.00   0.00   0.00   0.00   0.00   0.00   0.00   0.00   0.00   0.00   0.00       0       0
 2000 238     6     3    0.0      0   0.00      0      0      0      0      0      0     0.0  0.000      0      0  0.000  0.000  0.000  0.000    0.00   0.00   0.00      0      0    0.0   0.00   0.00    0.0   0.00   0.00   0.00   0.00   0.00   0.00   0.00   0.00   0.00   0.00   0.00       0       0
 2000 239     7     4    0.0      0   0.00      0      0      0      0      0      0     0.0  0.000      0      0  0.000  0.000  0.000  0.000    0.00   0.00   0.00      0      0    0.0   0.00   0.00    0.0   0.00   0.00   0.00   0.00   0.00   0.00   0.00   0.00   0.00   0.00   0.00       0       0
 2000 240     8     5    0.0      0   0.00      0      0      0      0      0      0     0.0  0.000      0      0  0.000  0.000  0.000  0.000    0.00   0.00   0.00      0      0    0.0   0.00   0.00    0.0   0.00   0.00   0.00   0.00   0.00   0.00   0.00   0.00   0.00   0.00   0.00       0       0
 2000 241     9     6    0.0      0   0.00      0      0      0      0      0      0     0.0  0.000      0      0  0.000  0.000  0.000  0.000    0.00   0.00   0.00      0      0    0.0   0.00   0.00    0.0   0.00   0.00   0.00   0.00   0.00   0.00   0.00   0.00   0.00   0.00   0.00       0       0
 2000 242    10     7    0.0      0   0.00      0      0      0      0      0      0     0.0  0.000      0      0  0.000  0.000  0.000  0.000    0.00   0.00   0.00      0      0    0.0   0.00   0.00    0.0   0.00   0.00   0.00   0.00   0.00   0.00   0.00   0.00   0.00   0.00   0.00       0       0
 2000 243    11     8    0.0      0   0.00      0      0      0      0      0      0     0.0  0.000      0      0  0.000  0.000  0.000  0.000    0.00   0.00   0.00      0      0    0.0   0.00   0.00    0.0   0.00   0.00   0.00   0.00   0.00   0.00   0.00   0.00   0.00   0.00   0.00       0       0
 2000 244    12     9    0.0      0   0.00      0      0      0      0      0      0     0.0  0.000      0      0  0.000  0.000  0.000  0.000    0.00   0.00   0.00      0      0    0.0   0.00   0.00    0.0   0.00   0.00   0.00   0.00   0.00   0.00   0.00   0.00   0.00   0.00   0.00       0       0
 2000 245    13    10    0.0      0   0.01      3      1      0      4      4      0     0.0  0.000      0      0  0.000  0.000  0.000  0.000    5.70   0.00   0.00      0      0  192.9   0.03   0.03    0.9   0.26   0.04   0.04   0.02   0.00   0.00   0.00   0.00   0.00   0.00   0.00       0       0
 2000 246    14    11    0.0      0   0.01      3      1      0      4      4      0     0.0  0.000      0      0  0.000  0.000  0.000  0.000    5.70   0.00   0.00      0      0  189.6   0.03   0.03    0.9   0.28   0.04   0.04   0.03   0.00   0.00   0.00   0.00   0.00   0.00   0.00       0       0
 2000 247    15    12    0.1      0   0.01      3      1      0      4      4      0     0.0  0.000      0      0  0.000  0.000  0.000  0.000    5.70   0.00   0.00      0      0  186.6   0.03   0.03    0.8   0.31   0.04   0.04   0.03   0.00   0.00   0.00   0.00   0.00   0.00   0.00       0       0
 2000 248    16    13    0.1      0   0.01      3      1      0      4      4      0     0.0  0.000      0      0  0.000  0.000  0.000  0.000    5.70   0.00   0.00      0      0  185.1   0.03   0.03    0.8   0.34   0.04   0.04   0.03   0.00   0.00   0.00   0.00   0.00   0.00   0.00       0       0
 2000 249    17    14    0.1      0   0.01      4      1      0      5      5      0     0.0  0.000      0      0  0.000  0.000  0.000  0.000    5.70   0.00   0.00      0      0  183.9   0.03   0.03    0.8   0.38   0.04   0.04   0.03   0.00   0.00   0.00   0.00   0.00   0.00   0.00       0       0
 2000 250    18    15    0.2      0   0.01      4      1      0      5      5      0     0.0  0.000      0      0  0.000  0.000  0.000  0.000    5.70   0.00   0.00      0      0  183.3   0.03   0.03    0.8   0.42   0.05   0.05   0.04   0.00   0.00   0.00   0.00   0.00   0.00   0.00       0       0
 2000 251    19    16    0.3      0   0.01      4      1      0      6      5      0     0.0  0.000      0      0  0.000  0.000  0.000  0.000    5.70   0.00   0.00      0      0  186.7   0.03   0.03    0.8   0.49   0.05   0.05   0.04   0.00   0.00   0.00   0.00   0.00   0.00   0.00       0       0
 2000 252    20    17    0.4      0   0.01      4      1      0      6      6      0     0.0  0.000      0      0  0.000  0.000  0.000  0.000    5.71   0.00   0.00      0      0  193.0   0.04   0.04    0.8   0.59   0.06   0.06   0.04   0.01   0.00   0.00   0.00   0.00   0.00   0.00       0       0
 2000 253    21    18    0.4      0   0.01      5      1      0      7      6      0     0.0  0.000      0      0  0.000  0.000  0.000  0.000    5.71   0.00   0.00      0      0  201.9   0.04   0.04    0.8   0.67   0.06   0.06   0.04   0.01   0.00   0.00   0.00   0.00   0.00   0.00       0       0
 2000 254    22    19    0.5      0   0.01      5      1      0      7      6      0     0.0  0.000      0      0  0.000  0.000  0.000  0.154    5.71   0.00   0.00      0      0  210.7   0.04   0.04    0.8   0.76   0.06   0.06   0.05   0.01   0.00   0.00   0.00   0.00   0.00   0.00       0       0
 2000 255    23    20    0.6      0   0.01      5      1      0      8      6      0     0.0  0.000      0      0  0.000  0.000  0.000  0.000    5.71   0.00   0.00      0      0  215.4   0.04   0.04    0.8   0.83   0.06   0.06   0.05   0.01   0.00   0.00   0.00   0.00   0.00   0.00       0       1
 2000 256    24    21    0.6      0   0.01      5      2      0      8      7      0     0.0  0.000      0      0  0.000  0.000  0.000  0.000    5.71   0.00   0.00      0      0  213.8   0.05   0.05    0.8   0.85   0.06   0.06   0.05   0.01   0.01   0.00   0.00   0.00   0.00   0.00       0       1
 2000 257    25    22    0.7      0   0.01      5      2      0      8      7      0     0.0  0.000      0      0  0.000  0.000  0.000  0.001    5.71   0.00   0.00      0      0  213.5   0.05   0.05    0.7   0.86   0.06   0.06   0.05   0.01   0.01   0.00   0.00   0.00   0.00   0.00       0       1
 2000 258    26    23    0.7      0   0.01      5      2      0      8      7      0     0.0  0.000      0      0  0.000  0.000  0.000  0.100    5.71   0.00   0.00      0      0  212.8   0.05   0.05    0.7   0.88   0.06   0.06   0.05   0.01   0.01   0.00   0.00   0.00   0.00   0.00       0       1
 2000 259    27    24    0.7      0   0.01      5      2      0      8      7      0     0.0  0.000      0      0  0.000  0.000  0.000  0.000    5.71   0.00   0.00      0      0  212.2   0.05   0.05    0.7   0.91   0.07   0.06   0.05   0.01   0.01   0.00   0.00   0.00   0.00   0.00       0       1
 2000 260    28    25    0.8      0   0.01      6      2      0      9      7      0     0.0  0.000      0      0  0.000  0.000  0.000  0.000    5.72   0.00   0.00      0      0  211.0   0.05   0.05    0.7   0.96   0.07   0.07   0.05   0.01   0.01   0.00   0.00   0.00   0.00   0.00       0       1
 2000 261    29    26    0.8      0   0.01      6      2      0      9      8      0     0.0  0.000      0      0  0.000  0.000  0.000  0.000    5.72   0.00   0.00      0      0  210.6   0.05   0.05    0.7   1.01   0.07   0.07   0.06   0.01   0.01   0.00   0.00   0.00   0.00   0.00       0       1
 2000 262    30    27    0.9      0   0.01      6      2      0     10      8      0     0.0  0.000      0      0  0.000  0.000  0.000  0.007    5.72   0.00   0.00      0      0  215.1   0.05   0.05    0.7   1.07   0.07   0.07   0.06   0.01   0.01   0.00   0.00   0.00   0.00   0.00       0       1
 2000 263    31    28    1.0      0   0.01      6      2      0     10      8      0     0.0  0.000      0      0  0.000  0.000  0.000  0.094    5.72   0.00   0.00      0      0  218.7   0.05   0.05    0.7   1.16   0.08   0.07   0.06   0.02   0.01   0.01   0.00   0.00   0.00   0.00       0       1
 2000 264    32    29    1.1      0   0.02      7      2      0     11      9      0     0.0  0.000      0      0  0.000  0.000  0.000  0.050    5.72   0.00   0.00      0      0  229.9   0.06   0.06    0.7   1.23   0.08   0.08   0.06   0.02   0.01   0.01   0.00   0.00   0.00   0.00       0       1
 2000 265    33    30    1.2      0   0.02      7      2      0     11     10      0     0.0  0.000      0      0  0.000  0.000  0.000  0.000    5.72   0.00   0.00      0      0  233.3   0.06   0.06    0.7   1.25   0.08   0.08   0.06   0.02   0.01   0.01   0.00   0.00   0.00   0.00       0       1
 2000 266    34    31    1.3      0   0.02      8      3      0     12     11      0     0.0  0.000      0      0  0.000  0.000  0.000  0.000    5.72   0.00   0.00      0      0  224.4   0.06   0.06    0.7   1.25   0.08   0.08   0.07   0.02   0.01   0.01   0.00   0.00   0.00   0.00       0       1
 2000 267    35    32    1.5      0   0.02      9      3      0     12     12      0     0.0  0.000      0      0  0.000  0.000  0.000  0.000    5.72   0.00   0.00      0      0  224.2   0.07   0.07    0.7   1.25   0.08   0.08   0.07   0.02   0.01   0.01   0.00   0.00   0.00   0.00       0       1
 2000 268    36    33    1.5      0   0.02      9      3      0     13     12      0     0.0  0.000      0      0  0.000  0.000  0.000  0.000    5.72   0.00   0.00      0      0  217.4   0.07   0.07    0.7   1.25   0.08   0.08   0.07   0.02   0.01   0.01   0.00   0.00   0.00   0.00       0       1
 2000 269    37    34    1.5      0   0.02     10      3      0     13     13      0     0.0  0.000      0      0  0.000  0.000  0.000  0.000    5.72   0.00   0.00      0      0  211.7   0.07   0.07    0.7   1.25   0.09   0.09   0.07   0.02   0.01   0.01   0.01   0.00   0.00   0.00       0       1
 2000 270    38    35    1.6      0   0.02     10      3      0     14     14      0     0.0  0.000      0      0  0.000  0.000  0.000  0.000    5.72   0.00   0.00      0      0  206.3   0.07   0.07    0.7   1.25   0.09   0.09   0.08   0.02   0.02   0.01   0.01   0.00   0.00   0.00       0       1
 2000 271    39    36    1.7      0   0.02     11      4      0     15     15      0     0.0  0.000      0      0  0.000  0.000  0.000  0.000    5.72   0.00   0.00      0      0  205.2   0.07   0.07    0.8   1.25   0.10   0.09   0.08   0.02   0.02   0.01   0.01   0.00   0.00   0.00       0       1
 2000 272    40    37    1.9      0   0.03     12      4      0     17     17      0     0.0  0.000      0      0  0.000  0.000  0.000  0.000    5.72   0.00   0.00      0      0  206.8   0.08   0.08    0.8   1.25   0.10   0.10   0.09   0.03   0.02   0.01   0.01   0.00   0.00   0.00       0       1
 2000 273    41    38    2.0      0   0.03     13      5      0     19     18      0     0.0  0.000      0      0  0.000  0.000  0.000  0.000    5.72   0.00   0.00      0      0  211.3   0.08   0.08    0.9   1.25   0.11   0.11   0.10   0.03   0.02   0.02   0.01   0.00   0.00   0.00       0       1
 2000 274    42    39    2.2      0   0.03     15      6      0     20     20      0     0.0  0.000      0      0  0.000  0.000  0.000  0.010    5.72   0.00   0.00      0      0  218.9   0.09   0.09    1.0   1.25   0.12   0.12   0.10   0.03   0.03   0.02   0.01   0.01   0.00   0.00       0       2
 2000 275    43    40    2.4      0   0.04     16      6      0     22     23      0     0.0  0.000      0      0  0.000  0.000  0.000  0.000    5.72   0.00   0.00      0      0  227.0   0.10   0.10    1.1   1.25   0.12   0.12   0.11   0.04   0.03   0.02   0.01   0.01   0.00   0.00       0       2
 2000 276    44    41    2.6      0   0.04     17      7      0     23     24      0     0.0  0.000      0      0  0.000  0.000  0.000  0.011    5.72   0.00   0.00      0      0  236.1   0.11   0.10    1.1   1.25   0.13   0.13   0.11   0.04   0.03   0.02   0.02   0.01   0.00   0.00       0       2
 2000 277    45    42    2.7      0   0.04     18      7      0     24     25      0     0.0  0.000      0      0  0.000  0.000  0.000  0.079    5.72   0.00   0.00      0      0  241.2   0.11   0.11    1.2   1.25   0.13   0.13   0.12   0.04   0.03   0.02   0.02   0.01   0.00   0.00       0       2
 2000 278    46    43    2.8      0   0.05     19      8      0     26     28      0     0.0  0.000      0      0  0.000  0.000  0.000  0.000    5.72   0.00   0.00      0      0  237.1   0.12   0.11    1.2   1.25   0.14   0.14   0.12   0.04   0.04   0.03   0.02   0.01   0.00   0.00       0       2
 2000 279    47    44    2.9      0   0.05     21      9      0     28     30      0     0.0  0.000      0      0  0.000  0.000  0.000  0.000    5.72   0.00   0.00      0      0  230.5   0.12   0.12    1.3   1.25   0.15   0.15   0.13   0.05   0.04   0.03   0.02   0.01   0.00   0.00       0       2
 2000 280    48    45    3.0      0   0.05     22     11      0     30     32      0     0.0  0.000      0      0  0.000  0.000  0.000  0.000    5.72   0.00   0.00      0      0  224.7   0.12   0.12    1.4   1.25   0.16   0.15   0.14   0.05   0.04   0.03   0.02   0.01   0.00   0.00       0       2
 2000 281    49    46    3.1      0   0.05     24     12      0     32     36      0     0.0  0.000      0      0  0.000  0.000  0.000  0.000    5.72   0.00   0.00      0      0  220.0   0.13   0.12    1.5   1.25   0.17   0.16   0.15   0.06   0.05   0.04   0.02   0.01   0.00   0.00       0       2
 2000 282    50    47    3.3      0   0.06     27     13      0     35     40      0     0.0  0.000      0      0  0.000  0.000  0.000  0.000    5.72   0.00   0.00      0      0  217.6   0.13   0.13    1.6   1.25   0.18   0.18   0.16   0.06   0.05   0.04   0.03   0.01   0.00   0.00       0       3
 2000 283    51    48    3.4      0   0.06     28     14      0     35     42      0     0.0  0.000      0      0  0.000  0.000  0.000  0.022    5.72   0.00   0.00      0      0  222.0   0.13   0.13    1.6   1.25   0.18   0.18   0.17   0.06   0.05   0.04   0.03   0.01   0.00   0.00       0       3
 2000 284    52    49    3.5      0   0.07     30     15      0     38     46      0     0.0  0.000      0      0  0.000  0.000  0.000  0.000    5.72   0.00   0.00      0      0  215.5   0.14   0.14    1.7   1.25   0.19   0.19   0.18   0.07   0.06   0.04   0.03   0.01   0.00   0.00       0       3
 2000 285    53    50    3.6      0   0.07     33     18      0     41     50      0     0.0  0.000      0      0  0.000  0.000  0.000  0.000    5.72   0.00   0.00      0      0  212.0   0.14   0.14    1.8   1.25   0.21   0.20   0.19   0.07   0.06   0.05   0.03   0.02   0.00   0.00       0       3
 2000 286    54    51    3.8      0   0.08     36     21      0     46     56      0     0.0  0.000      0      0  0.000  0.000  0.000  0.000    5.72   0.00   0.00      0      0  218.7   0.15   0.14    2.0   1.25   0.23   0.22   0.21   0.08   0.07   0.06   0.04   0.02   0.00   0.00       0       3
 2000 287    55    52    4.0      0   0.08     38     24      0     50     62      0     0.0  0.000      0      0  0.000  0.000  0.000  0.000    5.72   0.00   0.00      0      0  218.3   0.16   0.15    2.2   1.25   0.25   0.24   0.23   0.09   0.08   0.06   0.04   0.02   0.00   0.00       0       4
 2000 288    56    53    4.1      0   0.09     40     25      0     51     65      0     0.0  0.000      0      0  0.000  0.000  0.000  0.000    5.72   0.00   0.00      0      0  225.4   0.16   0.15    2.2   1.25   0.25   0.25   0.24   0.09   0.08   0.06   0.04   0.02   0.00   0.00       0       4
 2000 289    57    54    4.2      0   0.10     42     26      0     53     68      0     0.0  0.000      0      0  0.000  0.000  0.000  0.000    5.72   0.00   0.00      0      0  230.7   0.17   0.15    2.3   1.25   0.26   0.25   0.24   0.10   0.08   0.07   0.05   0.02   0.00   0.00       0       4
 2000 290    58    55    4.4      0   0.10     44     29      0     56     73      0     0.0  0.000      0      0  0.000  0.000  0.000  0.000    5.73   0.00   0.00      0      0  238.6   0.17   0.15    2.4   1.25   0.27   0.27   0.26   0.10   0.09   0.07   0.05   0.02   0.00   0.00       0       4
 2000 291    59    56    4.6      0   0.11     46     32      0     60     78      0     0.0  0.000      0      0  0.000  0.000  0.000  0.000    5.73   0.00   0.00      0      0  246.9   0.18   0.15    2.6   1.25   0.29   0.28   0.27   0.11   0.09   0.07   0.05   0.03   0.00   0.00       0       5
 2000 292    60    57    4.8      0   0.12     48     35      0     62     83      0     0.0  0.000      0      0  0.000  0.000  0.000  0.000    5.73   0.00   0.00      0      0  257.1   0.19   0.15    2.7   1.25   0.30   0.29   0.28   0.11   0.10   0.08   0.06   0.03   0.00   0.00       0       5
 2000 293    61    58    5.0      0   0.13     50     39      0     66     89      0     0.0  0.000      0      0  0.000  0.000  0.000  0.000    5.73   0.00   0.00      0      0  261.1   0.20   0.15    2.9   1.25   0.31   0.31   0.30   0.12   0.11   0.08   0.06   0.03   0.00   0.00       0       5
 2000 294    62    59    5.2      0   0.15     54     42      0     68     96      0     0.0  0.000      0      0  0.000  0.000  0.000  0.000    5.73   0.00   0.00      0      0  278.2   0.21   0.15    3.0   1.25   0.32   0.32   0.31   0.12   0.11   0.09   0.06   0.03   0.00   0.00       0       6
 2000 295    63    60    5.4      0   0.17     62     48      0     74    110      0     0.0  0.000      0      0  0.000  0.000  0.000  0.000    5.73   0.00   0.00      0      0  282.2   0.22   0.15    3.2   1.25   0.35   0.34   0.33   0.13   0.12   0.09   0.07   0.03   0.00   0.00       0       6
 2000 296    64    61    5.6      0   0.19     66     51      0     76    116      0     0.0  0.000      0      0  0.000  0.000  0.000  0.010    5.73   0.00   0.00      0      0  290.8   0.23   0.15    3.3   1.25   0.36   0.35   0.34   0.14   0.12   0.10   0.07   0.03   0.00   0.00       0       7
 2000 297    65    62    5.7      0   0.21     70     54      0     79    123      0     0.0  0.000      0      0  0.000  0.000  0.000  0.000    5.73   0.00   0.00      0      0  295.3   0.23   0.15    3.4   1.25   0.37   0.36   0.35   0.14   0.13   0.10   0.07   0.04   0.00   0.00       0       7
 2000 298    66    63    5.9      0   0.23     74     58      0     82    132      0     0.0  0.000      0      0  0.000  0.000  0.000  0.000    5.73   0.00   0.00      0      0  304.2   0.24   0.15    3.6   1.25   0.38   0.38   0.37   0.15   0.13   0.11   0.07   0.04   0.00   0.00       0       8
 2000 299    67    64    6.1      0   0.26     82     64      0     87    146      0     0.0  0.000      0      0  0.000  0.000  0.000  0.015    5.73   0.00   0.00      0      0  311.1   0.25   0.15    3.8   1.25   0.41   0.40   0.39   0.16   0.14   0.11   0.08   0.04   0.00   0.00       0       8
 2000 300    68    65    6.3      0   0.29     91     71      0     93    162      0     0.0  0.000      0      0  0.000  0.000  0.000  0.039    5.68   0.00   0.00      0      0  325.4   0.26   0.15    4.1   1.25   0.43   0.43   0.41   0.17   0.15   0.12   0.09   0.04   0.00   0.00       0       9
 2000 301    69    66    6.5      0   0.33    106     84      0    103    190      0     0.0  0.000      0      0  0.000  0.000  0.000  0.000    5.69   0.00   0.00      0      0  311.3   0.27   0.15    4.5   1.25   0.48   0.47   0.45   0.19   0.17   0.13   0.10   0.05   0.00   0.00       0      10
 2000 302    70    67    6.6      0   0.35    119     96      0    113    215      0     0.0  0.000      0      0  0.000  0.000  0.000  0.000    5.70   0.00   0.00      0      0  294.0   0.27   0.15    5.0   1.25   0.52   0.51   0.50   0.21   0.18   0.15   0.11   0.05   0.00   0.00       0      10
 2000 303    71    68    6.7      0   0.37    131    107      0    122    239      0     0.0  0.000      0      0  0.000  0.000  0.000  0.000    5.70   0.00   0.00      0      0  278.1   0.28   0.15    5.4   1.25   0.56   0.55   0.53   0.23   0.20   0.16   0.12   0.06   0.00   0.00       0      10
 2000 304    72    69    6.8      0   0.41    152    125      0    136    277      0     0.0  0.000      0      0  0.000  0.000  0.000  0.000    5.70   0.00   0.00      0      0  268.8   0.28   0.15    6.0   1.25   0.62   0.61   0.60   0.25   0.22   0.18   0.13   0.07   0.00   0.00       0      11
 2000 305    73    70    7.0      0   0.46    174    146      0    152    319      0     0.0  0.000      0      0  0.000  0.000  0.000  0.000    5.70   0.00   0.00      0      0  264.7   0.29   0.15    6.8   1.25   0.69   0.68   0.66   0.28   0.25   0.20   0.15   0.07   0.00   0.00       0      12
 2000 306    74    71    7.2      0   0.51    184    156      0    159    340      0     0.0  0.000      0      0  0.000  0.000  0.000  0.000    5.70   0.00   0.00      0      0  276.9   0.30   0.15    7.1   1.25   0.72   0.71   0.69   0.29   0.26   0.21   0.15   0.08   0.00   0.00       0      13
 2000 307    75    72    7.4      1   0.56    204    176      0    173    380      0     0.0  0.000      0      0  0.000  0.000  0.000  0.000    5.70   0.00   0.00      0      0  275.5   0.31   0.15    7.8   1.25   0.78   0.77   0.75   0.32   0.29   0.23   0.17   0.09   0.00   0.00       0      14
 2000 308    76    73    7.5      1   0.61    229    201      0    190    430      0     0.0  0.000      0      0  0.000  0.000  0.000  0.000    5.70   0.00   0.00      0      0  265.6   0.32   0.15    8.7   1.25   0.86   0.85   0.83   0.35   0.32   0.25   0.18   0.09   0.00   0.00       0      14
 2000 309    77    74    7.7      1   0.65    249    222      0    205    471      0     0.0  0.000      0      0  0.000  0.000  0.000  0.000    5.70   0.00   0.00      0      0  261.5   0.32   0.15    9.4   1.25   0.92   0.91   0.89   0.38   0.34   0.27   0.20   0.10   0.00   0.00       0      15
 2000 310    78    75    7.8      1   0.70    278    253      0    225    531      0     0.0  0.000      0      0  0.000  0.000  0.000  0.000    5.69   0.00   0.00      0      0  253.2   0.33   0.15   10.3   1.25   1.00   1.00   0.98   0.42   0.37   0.30   0.22   0.11   0.00   0.00       0      16
 2000 311    79    76    8.0      1   0.77    309    287      0    247    596      0     0.0  0.000      0      0  0.000  0.000  0.000  0.000    5.69   0.00   0.00      0      0  249.3   0.34   0.15   11.4   1.25   1.10   1.09   1.08   0.46   0.41   0.33   0.24   0.12   0.00   0.00       0      17
 2000 312    80    77    8.2      1   0.84    329    309      0    260    637      0     0.0  0.000      0      0  0.000  0.000  0.000  0.000    5.70   0.00   0.00      0      0  254.6   0.34   0.15   12.1   1.25   1.16   1.15   1.13   0.48   0.43   0.35   0.25   0.13   0.00   0.00       1      19
 2000 313    81    78    8.4      1   0.92    355    339      0    278    694      0     0.0  0.000      0      0  0.000  0.000  0.000  0.000    5.71   0.00   0.00      0      0  258.8   0.35   0.15   13.1   1.25   1.23   1.23   1.21   0.52   0.46   0.38   0.27   0.14   0.00   0.00       3      21
 2000 314    82    79    8.6      1   0.97    369    357      0    289    727      0     0.0  0.000      0      0  0.000  0.000  0.000  0.000    5.72   0.00   0.00      0      0  262.8   0.36   0.15   13.6   1.25   1.28   1.27   1.26   0.54   0.48   0.39   0.28   0.15   0.00   0.00       5      22
 2000 315    83    80    8.8      1   1.04    404    400      0    313    804      0     0.0  0.000      0      0  0.000  0.000  0.000  0.000    5.72   0.00   0.00      0      0  256.6   0.37   0.15   14.8   1.25   1.39   1.38   1.36   0.58   0.52   0.42   0.31   0.16   0.00   0.00       7      24
 2000 316    84    81    9.0      1   1.11    441    447      0    340    888      0     0.0  0.000      0      0  0.000  0.000  0.000  0.000    5.72   0.00   0.00      0      0  252.1   0.38   0.15   16.2   1.25   1.50   1.50   1.48   0.63   0.57   0.46   0.33   0.17   0.00   0.00      10      26
 2000 317    85    82    9.2      1   1.20    479    498      0    368    977      0     0.0  0.000      0      0  0.000  0.000  0.000  0.000    5.71   0.00   0.00      0      0  250.0   0.39   0.15   17.7   1.25   1.62   1.62   1.60   0.68   0.61   0.50   0.36   0.19   0.00   0.00      13      28
 2000 318    86    83    9.3      1   1.25    512    540      0    390   1052      0     0.0  0.000      0      0  0.000  0.000  0.000  0.000    5.72   0.00   0.00      0      0  244.6   0.40   0.15   18.9   1.25   1.72   1.71   1.70   0.73   0.65   0.53   0.38   0.20   0.00   0.00      14      30
 2000 319    87    84    9.4      1   1.27    536    574      0    408   1110      0     0.0  0.000      0      0  0.000  0.000  0.000  0.000    5.75   0.00   0.00      0      0  236.7   0.41   0.15   19.8   1.25   1.80   1.79   1.77   0.76   0.68   0.55   0.40   0.21   0.00   0.00      18      31
 2000 320    88    85    9.5      1   1.29    559    604      0    425   1163      0     0.0  0.000      0      0  0.000  0.000  0.000  0.000    5.76   0.00   0.00      0      0  230.3   0.41   0.15   20.5   1.25   1.87   1.86   1.85   0.79   0.71   0.58   0.42   0.22   0.00   0.00      21      32
 2000 321    89    86    9.6      3   1.33    597    658      0    453   1255      0     0.0  0.000      0      0  0.000  0.000  0.000  0.000    5.77   0.00   0.00      0      0  222.2   0.41   0.15   19.0   1.25   1.99   1.98   1.97   0.84   0.76   0.62   0.45   0.23   0.00   0.00      25      35
 2000 322    90    87    9.8      3   1.38    642    725      0    488   1367      0     0.0  0.000      0      0  0.000  0.000  0.000  0.000    5.75   0.00   0.00      0      0  214.8   0.42   0.15   20.2   1.25   2.14   2.14   2.12   0.91   0.82   0.66   0.48   0.25   0.00   0.00      31      37
 2000 323    91    88    9.9      3   1.45    696    804      0    528   1501      0     0.0  0.000      1      6  0.000  0.000  0.000  0.000    5.64   0.00   0.00      0      1  207.8   0.42   0.15   23.0   1.25   2.31   2.31   2.29   0.98   0.88   0.72   0.52   0.27   0.00   0.00      34      40
 2000 324    92    89   10.2      3   1.52    748    885      0    567   1637      0     0.0  0.000      3     21  0.000  0.000  0.000  0.000    5.51   0.00   0.00      0      3  203.1   0.43   0.15   26.5   1.25   2.48   2.48   2.46   1.06   0.95   0.77   0.56   0.29   0.00   0.00      38      43
 2000 325    93    90   10.3      3   1.56    793    954      0    600   1754      0     0.0  0.000      8     36  0.000  0.000  0.000  0.000    5.44   0.00   0.00      0      8  196.8   0.44   0.15   30.7   1.25   2.63   2.62   2.61   1.12   1.00   0.82   0.59   0.31   0.00   0.00      41      46
 2000 326    94    91   10.5      3   1.61    844   1039      0    639   1896      0     0.0  0.000     13     46  0.000  0.000  0.014  0.000    5.33   0.00   0.01      0     13  190.9   0.45   0.15   35.6   1.25   2.80   2.79   2.78   1.19   1.07   0.87   0.63   0.33   0.00   0.00      44      49
 2000 327    95    92   10.7      3   1.68    889   1115      0    673   2026      0     0.0  0.000     21     57  0.000  0.000  0.000  0.000    5.26   0.00   0.01      0     21  188.8   0.45   0.15   41.4   1.25   2.95   2.94   2.93   1.25   1.13   0.92   0.67   0.34   0.00   0.00      49      53
 2000 328    96    93   10.9      3   1.75    935   1193      0    706   2159      0     0.0  0.000     32     83  0.000  0.000  0.000  0.000    5.19   0.00   0.01      0     32  186.9   0.47   0.15   48.2   1.25   3.09   3.09   3.07   1.32   1.19   0.97   0.70   0.36   0.00   0.00      54      58
 2000 329    97    94   11.1      3   1.78    961   1239      0    726   2246      0     0.0  0.000     46    107  0.000  0.000  0.000  0.000    5.18   0.00   0.02      0     46  185.1   0.48   0.15   48.4   1.25   3.18   3.17   3.16   1.35   1.22   1.00   0.72   0.37   0.00   0.00      57      62
[...]
 2013 333   101    98   13.1      3   2.14   1111   1648      0    885   3194      0     0.0  0.000    435    500  0.000  0.000  0.000  0.000    4.59   0.00   0.14      0    435  192.3   0.60   0.15  106.3   1.25   3.96   3.58   3.90   1.69   1.53   1.24   0.90   0.47   0.00   0.00      85     125
 2013 334   102    99   13.3      3   2.15   1138   1711      0    904   3357      0     0.0  0.000    508    535  0.000  0.000  0.000  0.000    4.58   0.00   0.15      0    508  188.9   0.61   0.15  114.1   1.25   4.05   3.67   3.99   1.73   1.56   1.27   0.92   0.48   0.00   0.00      90     131
 2013 335   103   100   13.5      3   2.16   1152   1750      0    912   3489      0     0.0  0.000    588    581  0.000  0.000  0.000  0.000    4.54   0.00   0.17      0    588  187.2   0.62   0.15  114.1   1.25   4.08   3.71   4.02   1.74   1.57   1.28   0.93   0.48   0.00   0.00      95     138
 2013 336   104   101   13.8      3   2.16   1171   1799      0    925   3641      0     0.0  0.000    671    631  0.000  0.000  0.000  0.000    4.54   0.00   0.18      0    671  184.8   0.63   0.15  114.2   1.25   4.14   3.77   4.08   1.77   1.59   1.30   0.94   0.49   0.00   0.00     100     146
 2013 337   105   102   14.0      5   2.17   1192   1851      0    939   3799      0     0.0  0.000    756    678  0.000  0.000  0.000  0.000    4.53   0.00   0.20      0    756  181.9   0.65   0.15  114.2   1.25   4.20   3.84   4.15   1.80   1.62   1.32   0.96   0.49   0.00   0.00     104     151
 2013 338   106   103   14.2      5   2.17   1213   1908      0    955   3952      7     0.0  0.000    830    706  0.000  0.000  0.000  0.000    4.52   0.00   0.21      0    830  178.8   0.65   0.15  114.2   1.25   4.27   3.91   4.21   1.83   1.65   1.34   0.97   0.50   0.00   0.00     115     157
 2013 339   107   104   14.4      5   2.17   1233   1964      1    969   4105     34     1.6  0.000    907    737  0.000  0.000  0.000  0.000    4.50   0.06   0.22      0    907  175.9   0.66   0.15  114.2   1.25   4.34   3.97   4.28   1.85   1.67   1.36   0.99   0.51   0.00   0.00     138     164
 2013 340   108   105   14.6      5   2.17   1246   2003      3    979   4236     54     5.3  0.001    987    793  0.000  0.000  0.000  0.000    4.49   0.29   0.23      0    987  173.8   0.67   0.15  114.3   1.25   4.38   4.02   4.32   1.87   1.69   1.38   1.00   0.52   0.00   0.00     157     169
 2013 341   109   106   14.8      5   2.16   1266   2060      6    993   4394     71     9.1  0.001   1068    822  0.000  0.000  0.000  0.000    4.49   0.60   0.24      0   1068  170.8   0.68   0.15  114.4   1.25   4.43   4.09   4.39   1.90   1.71   1.40   1.01   0.52   0.00   0.00     173     175
 2013 342   110   107   15.0      5   2.16   1280   2106     11   1003   4521    110    10.2  0.002   1134    851  0.000  0.000  0.000  0.000    4.47   0.98   0.25      0   1134  168.5   0.69   0.15  114.4   1.25   4.47   4.13   4.43   1.92   1.73   1.41   1.02   0.53   0.00   0.00     205     183
 2013 343   111   108   15.3      5   2.14   1269   2094     19    993   4567    148    12.9  0.004   1204    890  0.000  0.000  0.000  0.000    4.44   1.59   0.26      0   1204  168.7   0.70   0.15  114.4   1.25   4.44   4.10   4.39   1.90   1.72   1.40   1.01   0.52   0.00   0.00     238     192
 2013 344   112   109   15.5      5   2.13   1276   2120     30    998   4675    197    15.2  0.006   1279    907  0.000  0.000  0.000  0.000    4.44   2.35   0.27      0   1279  167.3   0.72   0.15  127.3   1.25   4.46   4.12   4.41   1.91   1.72   1.41   1.02   0.53   0.00   0.00     279     198
 2013 345   113   110   15.7      5   2.13   1287   2159     43   1006   4802    244    17.8  0.009   1355    939  0.000  0.000  0.000  0.000    4.44   3.20   0.28      0   1355  165.2   0.72   0.15  127.3   1.25   4.49   4.16   4.45   1.93   1.74   1.42   1.03   0.53   0.00   0.00     319     204
 2013 346   114   111   15.9      5   2.12   1296   2192     61   1012   4931    286    21.1  0.012   1443    962  0.000  0.000  0.000  0.000    4.43   4.20   0.29      0   1443  163.4   0.73   0.15  127.3   1.25   4.52   4.19   4.48   1.94   1.75   1.43   1.03   0.53   0.00   0.00     356     211
 2013 347   115   112   16.1      5   2.10   1302   2222     81   1015   5058    321    25.2  0.016   1535    994  0.000  0.000  0.000  0.000    4.42   5.27   0.30      0   1535  161.7   0.74   0.15  127.3   1.25   4.54   4.21   4.50   1.95   1.76   1.43   1.04   0.54   0.00   0.00     389     219
 2013 348   116   113   16.4      5   2.09   1305   2245    103   1017   5131    406    25.3  0.020   1581   1019  0.000  0.000  0.000  0.000    4.40   6.50   0.31      0   1581  160.3   0.75   0.15  127.3   1.25   4.54   4.22   4.51   1.95   1.76   1.44   1.04   0.54   0.00   0.00     465     227
 2013 349   117   114   16.6      5   2.08   1300   2247    130   1013   5250    406    32.2  0.025   1702   1069  0.000  0.000  0.000  0.000    4.38   7.66   0.32      0   1702  159.7   0.76   0.15  127.3   1.25   4.53   4.21   4.49   1.95   1.75   1.43   1.04   0.54   0.00   0.00     472     236
 2013 350   118   115   16.9      5   2.06   1297   2256    157   1011   5310    477    32.8  0.030   1757   1089  0.000  0.000  0.000  0.000    4.35   8.92   0.33      0   1757  158.8   0.77   0.15  127.3   1.25   4.52   4.21   4.49   1.94   1.75   1.43   1.04   0.54   0.00   0.00     537     244
 2013 351   119   116   17.1      5   2.05   1295   2266    189   1011   5397    533    35.4  0.035   1836   1112  0.000  0.000  0.000  0.000    4.33  10.28   0.34      0   1836  157.9   0.78   0.15  127.3   1.25   4.52   4.21   4.49   1.94   1.75   1.43   1.04   0.54   0.00   0.00     589     252
 2013 352   120   117   17.3      5   2.03   1288   2262    226   1006   5470    595    38.0  0.041   1920   1130  0.000  0.000  0.000  0.000    4.30  11.79   0.35      0   1920  157.6   0.79   0.15  127.3   1.25   4.51   4.20   4.47   1.94   1.75   1.42   1.03   0.53   0.00   0.00     648     260
 2013 353   121   118   17.3      5   2.01   1277   2247    268    998   5550    635    42.2  0.048   2026   1161  0.000  0.000  0.000  0.000    4.28  13.22   0.37      0   2026  157.8   0.80   0.15  127.3   1.25   4.48   4.17   4.44   1.92   1.73   1.41   1.03   0.53   0.00   0.00     687     269
 2013 354   122   119   17.3      5   2.00   1267   2239    313    992   5593    738    42.4  0.056   2087   1168  0.000  0.000  0.000  0.000    4.25  14.99   0.37      0   2087  157.7   0.81   0.15  127.3   1.25   4.44   4.15   4.42   1.91   1.73   1.41   1.02   0.53   0.00   0.00     773     277
 2013 355   123   120   17.3      5   1.98   1258   2231    363    986   5670    802    45.3  0.064   2180   1191  0.000  0.000  0.000  0.000    4.22  16.66   0.38      0   2180  157.5   0.82   0.15  127.3   1.25   4.42   4.13   4.40   1.90   1.72   1.40   1.02   0.52   0.00   0.00     829     286
 2013 356   124   121   17.3      5   1.97   1247   2218    420    979   5748    862    48.7  0.073   2282   1215  0.000  0.000  0.000  0.000    4.18  18.39   0.40      0   2282  157.6   0.83   0.15  127.3   1.25   4.39   4.10   4.37   1.89   1.71   1.39   1.01   0.52   0.00   0.00     881     294
 2013 357   125   122   17.3      5   1.95   1237   2206    479    972   5840    900    53.1  0.082   2398   1245  0.000  0.000  0.000  0.000    4.15  19.96   0.41      0   2398  157.6   0.83   0.15  128.1   1.25   4.37   4.08   4.34   1.88   1.70   1.38   1.00   0.52   0.00   0.00     917     302
 2013 358   126   123   17.3      5   1.93   1226   2194    538    966   5926    952    56.5  0.091   2505   1267  0.000  0.000  0.000  0.000    4.12  21.48   0.42      0   2505  157.6   0.83   0.15  128.1   1.25   4.34   4.06   4.32   1.87   1.69   1.38   1.00   0.52   0.00   0.00     958     310
 2013 359   127   124   17.3      5   1.92   1215   2180    599    959   5986   1033    58.0  0.100   2590   1277  0.000  0.000  0.000  0.000    4.09  23.12   0.43      0   2590  157.8   0.83   0.15  128.1   1.25   4.31   4.03   4.29   1.86   1.67   1.37   0.99   0.51   0.00   0.00    1019     318
 2013 360   128   125   17.3      5   1.90   1208   2176    656    954   6067   1078    60.8  0.108   2683   1294  0.000  0.000  0.000  0.000    4.06  24.44   0.44      0   2683  157.5   0.83   0.15  128.1   1.25   4.29   4.01   4.27   1.85   1.67   1.36   0.99   0.51   0.00   0.00    1053     326
 2013 361   129   126   17.3      5   1.89   1195   2157    721    945   6113   1133    63.7  0.118   2762   1302  0.000  0.000  0.000  0.000    4.03  26.11   0.45      0   2762  157.9   0.83   0.15  128.1   1.25   4.26   3.98   4.24   1.83   1.65   1.35   0.98   0.51   0.00   0.00    1092     335
 2013 362   130   127   17.3      5   1.87   1180   2135    796    936   6163   1203    66.2  0.129   2847   1304  0.000  0.000  0.000  0.000    3.99  27.97   0.46      0   2847  158.4   0.83   0.15  128.1   1.25   4.22   3.94   4.20   1.82   1.64   1.34   0.97   0.50   0.00   0.00    1138     343
 2013 363   131   128   17.3      5   1.85   1167   2115    869    927   6206   1248    69.7  0.140   2924   1315  0.000  0.000  0.000  0.000    3.96  29.72   0.47      0   2924  158.8   0.83   0.15  128.1   1.25   4.18   3.91   4.16   1.80   1.62   1.32   0.96   0.50   0.00   0.00    1172     352
 2013 364   132   129   17.3      5   1.84   1157   2104    938    920   6270   1312    71.5  0.150   3010   1315  0.000  0.000  0.000  0.000    3.93  31.17   0.48      0   3010  158.9   0.83   0.15  128.1   1.25   4.15   3.88   4.13   1.79   1.61   1.32   0.95   0.49   0.00   0.00    1217     360
 2013 365   133   130   17.3      5   1.82   1143   2085   1017    912   6274   1363    74.6  0.162   3047   1319  0.000  0.000  0.000  0.000    3.89  33.38   0.49      0   3047  159.4   0.83   0.15  128.1   1.25   4.12   3.85   4.10   1.77   1.60   1.31   0.95   0.49   0.00   0.00    1253     367
 2014 001   134   131   17.3      5   1.80   1128   2064   1104    903   6328   1423    77.6  0.174   3136   1303  0.000  0.000  0.000  0.000    3.84  35.21   0.50      0   3136  159.8   0.83   0.15  128.1   1.25   4.08   3.82   4.06   1.76   1.59   1.29   0.94   0.48   0.00   0.00    1294     375
 2014 002   135   132   17.3      5   1.78   1112   2043   1199    894   6330   1567    76.5  0.189   3174   1264  0.000  0.000  0.000  0.000    3.79  37.78   0.50      0   3174  160.3   0.83   0.15  128.1   1.25   4.05   3.78   4.03   1.74   1.57   1.28   0.93   0.48   0.00   0.00    1378     384
 2014 003   136   133   17.3      5   1.77   1099   2025   1314    887   6432   1567    83.9  0.204   3308   1264  0.000  0.000  0.000  0.000    3.74  39.73   0.51      0   3308  160.7   0.83   0.15  128.1   1.25   4.01   3.76   4.00   1.73   1.56   1.27   0.92   0.48   0.00   0.00    1386     390
 2014 004   137   134   17.3      5   1.75   1085   2008   1417    881   6514   1630    86.9  0.218   3420   1247  0.000  0.000  0.000  0.000    3.69  41.43   0.53      0   3420  161.1   0.83   0.15  128.1   1.25   3.99   3.73   3.97   1.72   1.55   1.26   0.92   0.47   0.00   0.00    1425     396
 2014 005   138   135   17.3      5   1.73   1072   1991   1523    873   6585   1690    90.2  0.231   3523   1232  0.000  0.000  0.000  0.000    3.64  43.24   0.53      0   3523  161.5   0.83   0.15  128.1   1.25   3.96   3.70   3.94   1.71   1.54   1.26   0.91   0.47   0.00   0.00    1461     402
 2014 006   139   136   17.3      5   1.71   1058   1972   1633    865   6646   1748    93.4  0.246   3616   1217  0.000  0.000  0.000  0.000    3.58  45.16   0.54      0   3616  161.9   0.83   0.15  128.1   1.25   3.92   3.67   3.91   1.69   1.53   1.24   0.90   0.47   0.00   0.00    1497     410
 2014 007   140   137   17.3      5   1.70   1045   1956   1743    858   6695   1809    96.3  0.260   3694   1201  0.000  0.000  0.000  0.000    3.54  47.19   0.55      0   3694  162.3   0.83   0.15  128.1   1.25   3.89   3.64   3.88   1.68   1.51   1.23   0.89   0.46   0.00   0.00    1535     417
 2014 008   141   138   17.3      5   1.68   1033   1942   1865    850   6749   1867    99.9  0.276   3774   1186  0.000  0.000  0.000  0.000    3.48  49.41   0.56      0   3774  162.6   0.83   0.15  128.1   1.25   3.86   3.61   3.85   1.66   1.50   1.22   0.89   0.46   0.00   0.00    1571     424
 2014 009   142   139   17.3      5   1.66   1020   1928   1985    842   6799   1929   102.9  0.292   3852   1169  0.000  0.000  0.000  0.000    3.42  51.54   0.57      0   3852  162.9   0.83   0.15  128.1   1.25   3.82   3.58   3.81   1.65   1.49   1.21   0.88   0.45   0.00   0.00    1609     432
 2014 010   143   140   17.3      5   1.64   1007   1912   2069    835   6817   1989   104.0  0.304   3898   1153  0.000  0.000  0.000  0.000    3.36  53.08   0.57      0   3898  163.3   0.83   0.15  128.1   1.25   3.80   3.55   3.78   1.64   1.48   1.20   0.87   0.45   0.00   0.00    1643     438
 2014 011   144   141   17.3      5   1.63    994   1897   2148    828   6839   2048   104.9  0.314   3947   1137  0.000  0.000  0.000  0.000    3.30  54.41   0.58      0   3947  163.6   0.83   0.15  128.1   1.25   3.77   3.53   3.75   1.63   1.47   1.20   0.87   0.45   0.00   0.00    1668     444
 2014 012   145   142   17.3      5   1.61    983   1885   2242    823   6888   2101   106.7  0.326   4020   1123  0.000  0.000  0.000  0.000    3.25  55.78   0.58      0   4020  163.9   0.83   0.15  128.1   1.25   3.74   3.51   3.73   1.62   1.46   1.19   0.86   0.45   0.00   0.00    1687     449
 2014 013   146   143   17.3      5   1.60    972   1872   2339    816   6941   2148   108.9  0.337   4097   1110  0.000  0.000  0.000  0.000    3.19  57.09   0.59      0   4097  164.2   0.83   0.15  128.1   1.25   3.72   3.48   3.71   1.60   1.45   1.18   0.86   0.44   0.00   0.00    1704     455
 2014 014   147   144   17.3      5   1.58    960   1858   2426    809   6979   2189   110.8  0.348   4161   1075  0.000  0.000  0.000  0.000    3.13  58.30   0.60      0   4161  164.6   0.83   0.15  128.1   1.25   3.69   3.45   3.67   1.59   1.43   1.17   0.85   0.44   0.00   0.00    1724     462
 2014 015   148   145   17.3      5   1.56    949   1847   2542    802   7060   2200   115.6  0.360   4264   1059  0.000  0.000  0.000  0.000    3.07  59.62   0.60      0   4264  164.8   0.83   0.15  128.1   1.25   3.66   3.42   3.64   1.58   1.42   1.16   0.84   0.43   0.00   0.00    1735     468
 2014 016   149   146   17.3      5   1.55    939   1837   2649    795   7133   2210   119.9  0.371   4358   1040  0.000  0.000  0.000  0.000    3.01  60.79   0.61      0   4358  165.1   0.83   0.15  128.1   1.25   3.63   3.40   3.61   1.56   1.41   1.15   0.83   0.43   0.00   0.00    1745     475
 2014 017   150   147   17.3      5   1.53    928   1826   2751    788   7202   2218   124.1  0.382   4448   1026  0.000  0.000  0.000  0.000    2.95  61.84   0.62      0   4448  165.3   0.83   0.15  128.1   1.25   3.60   3.37   3.58   1.55   1.40   1.14   0.83   0.43   0.00   0.00    1754     482
 2014 018   151   148   17.3      5   1.52    918   1815   2843    780   7264   2221   128.0  0.391   4530   1010  0.000  0.000  0.000  0.000    2.89  62.75   0.62      0   4530  165.6   0.83   0.15  128.1   1.25   3.55   3.34   3.55   1.54   1.39   1.13   0.82   0.42   0.00   0.00    1762     489
 2014 019   152   149   17.3      5   1.51    909   1804   2924    773   7317   2221   131.6  0.400   4604   1010  0.000  0.000  0.000  0.000    2.84  63.51   0.63      0   4604  165.9   0.83   0.15  128.1   1.25   3.52   3.31   3.52   1.52   1.37   1.12   0.81   0.42   0.00   0.00    1767     497
 2014 020   153   150   17.3      5   1.49    899   1794   3001    765   7367   2221   135.1  0.407   4674   1010  0.000  0.000  0.000  0.000    2.79  64.22   0.63      0   4674  166.2   0.83   0.15  128.1   1.25   3.48   3.27   3.49   1.51   1.36   1.11   0.80   0.42   0.00   0.00    1773     504
 2014 021   154   151   17.3      7   1.48    889   1781   3088    758   7423   2221   139.0  0.416   4753   1010  0.000  0.000  0.058  0.000    2.73  64.96   0.64      0   4753  166.6   0.83   0.15  128.1   1.25   3.45   3.24   3.45   1.49   1.35   1.10   0.80   0.41   0.00   0.00    1778     511
 2014 022   155   152   17.3      7   1.18    705   1667   3169    751   7201   2221   142.7  0.440   4828   1010  0.000  0.000  0.138  0.000    2.67  65.64   0.67      0   4828  167.1   0.83   0.15  128.1   1.25   3.42   3.22   3.42   1.48   1.34   1.09   0.79   0.41   0.00   0.00    2059     518
 2014 023   156   153   17.3      7   0.94    560   1577   3234    744   7023   2221   145.6  0.460   4886   1010  0.000  0.000  0.117  0.000    2.60  66.19   0.70      0   4886  167.6   0.83   0.15  128.1   1.25   3.39   3.19   3.39   1.47   1.32   1.08   0.78   0.40   0.00   0.00    2282     525
 2014 024   157   154   17.3      7   0.75    445   1505   3265    737   6862   2221   147.0  0.476   4912   1010  0.000  0.000  0.000  0.000    2.54  66.48   0.72      0   4912  168.0   0.83   0.15  120.5   1.25   3.36   3.16   3.36   1.46   1.31   1.07   0.78   0.40   0.00   0.00    2459     538
 2014 025   158   155   17.3      7   0.60    354   1448   3287    733   6731   2221   148.0  0.488   4929   1010  0.000  0.000  0.000  0.000    2.50  66.69   0.73      0   4929  168.3   0.83   0.15  112.0   1.25   3.34   3.14   3.34   1.45   1.31   1.07   0.77   0.40   0.00   0.00    2599     551
 2014 026   159   156   17.3      7   0.47    281   1403   3324    729   6645   2221   149.6  0.500   4961   1010  0.000  0.000  0.000  0.000    2.45  67.00   0.75      0   4961  168.7   0.83   0.15  104.4   1.25   3.32   3.12   3.32   1.44   1.30   1.06   0.77   0.40   0.00   0.00    2711     563
 2014 027   160   157   17.3      7   0.38    224   1366   3327    723   6554   2221   149.8  0.508   4964   1010  0.000  0.000  0.000  0.000    2.45  67.03   0.76      0   4964  169.0   0.83   0.15   97.1   1.25   3.30   3.10   3.30   1.43   1.29   1.05   0.76   0.39   0.00   0.00    2800     576
 2014 028   161   158   17.3      7   0.30    179   1336   3338    715   6486   2221   150.3  0.515   4972   1010  0.000  0.000  0.000  0.010    2.42  67.14   0.77      0   4972  169.4   0.83   0.15   90.3   1.25   3.27   3.07   3.26   1.41   1.28   1.04   0.75   0.39   0.00   0.00    2871     590
 2014 029   162   159   17.3      7   0.24    143   1313   3338    708   6427   2221   150.3  0.519   4972   1010  0.000  0.000  0.000  0.027    2.42  67.14   0.77      0   4972  169.7   0.83   0.15   84.0   1.25   3.24   3.04   3.20   1.40   1.27   1.03   0.75   0.39   0.00   0.00    2927     604
 2014 030   163   160   17.3      7   0.19    114   1294   3338    699   6379   2221   150.3  0.523   4972   1010  0.000  0.000  0.000  0.046    2.43  67.14   0.78      0   4972  170.1   0.83   0.15   78.1   1.25   3.22   3.00   3.14   1.39   1.25   1.02   0.74   0.38   0.00   0.00    2972     619
 2014 031   164   161   17.3      7   0.15     91   1278   3338    694   6341   2221   150.3  0.526   4972   1010  0.000  0.000  0.000  0.000    2.43  67.14   0.78      0   4972  170.3   0.83   0.15   72.6   1.25   3.19   2.98   3.11   1.38   1.24   1.01   0.74   0.38   0.00   0.00    3008     629
 2014 032   165   162   17.3      7   0.12     73   1266   3338    682   6310   2221   150.3  0.529   4972   1010  0.000  0.000  0.000  0.095    2.44  67.14   0.79      0   4972  170.6   0.83   0.15   67.5   1.25   3.17   2.95   3.05   1.30   1.23   1.00   0.73   0.38   0.00   0.00    3037     646
 2014 033   166   163   17.3      8   0.10     58   1255   3338    674   6285   2221   150.3  0.531   4972   1010  0.000  0.000  0.000  0.038    2.44  67.14   0.79      0   4972  170.9   0.83   0.15   62.8   1.25   3.14   2.93   3.00   1.29   1.22   0.99   0.73   0.37   0.00   0.00    3060     659
