*PLANT N OUTPUT FILE

*DSSAT Cropping System Model Ver. 4.0.2.000               Aug 23, 2016; 16:35:33

*RUN   1        : UYSB                    
 MODEL          : CRGRO040 - Soybean         
 EXPERIMENT     : UYSB0221 SB    late to create DSS                             
 TREATMENT  1   : UYSB                    

@YEAR DOY   DAS   DAP    CNAD    GNAD    VNAD    GN%D    VN%D     NFXC    NUPC    LNAD    SNAD    LN%D    SN%D    SHND   RN%D   NFXD   SNN0C   SNN1C
 1999 235     3     0     0.0     0.0     0.0    0.00    0.00      0.0     0.0     0.0     0.0    0.00    0.00     0.0    0.0    0.0    0.00    0.00
 1999 236     4     1     0.0     0.0     0.0    0.00    0.00      0.0     0.0     0.0     0.0    0.00    0.00     0.0    0.0    0.0    0.00    0.00
 1999 237     5     2     0.0     0.0     0.0    0.00    0.00      0.0     0.0     0.0     0.0    0.00    0.00     0.0    0.0    0.0    0.00    0.00
 1999 238     6     3     0.0     0.0     0.0    0.00    0.00      0.0     0.0     0.0     0.0    0.00    0.00     0.0    0.0    0.0    0.00    0.00
 1999 239     7     4     0.0     0.0     0.0    0.00    0.00      0.0     0.0     0.0     0.0    0.00    0.00     0.0    0.0    0.0    0.00    0.00
 1999 240     8     5     0.0     0.0     0.0    0.00    0.00      0.0     0.0     0.0     0.0    0.00    0.00     0.0    0.0    0.0    0.00    0.00
 1999 241     9     6     0.0     0.0     0.0    0.00    0.00      0.0     0.0     0.0     0.0    0.00    0.00     0.0    0.0    0.0    0.00    0.00
 1999 242    10     7     0.0     0.0     0.0    0.00    0.00      0.0     0.0     0.0     0.0    0.00    0.00     0.0    0.0    0.0    0.00    0.00
 1999 243    11     8     0.0     0.0     0.0    0.00    0.00      0.0     0.0     0.0     0.0    0.00    0.00     0.0    0.0    0.0    0.00    0.00
 1999 244    12     9     0.0     0.0     0.0    0.00    0.00      0.0     0.0     0.0     0.0    0.00    0.00     0.0    0.0    0.0    0.00    0.00
 1999 245    13    10     0.2     0.0     0.2    0.00    5.15      0.0     0.0     0.2     0.0    5.70    2.64     0.0    1.5    0.0    0.00    0.00
 1999 246    14    11     0.2     0.0     0.2    0.00    5.16      0.0     0.0     0.2     0.0    5.70    2.64     0.0    1.5    0.0    0.00    0.01
 1999 247    15    12     0.2     0.0     0.2    0.00    5.17      0.0     0.0     0.2     0.0    5.70    2.65     0.0    1.5    0.0    0.00    0.01
 1999 248    16    13     0.2     0.0     0.2    0.00    5.18      0.0     0.0     0.2     0.0    5.70    2.65     0.0    1.5    0.0    0.00    0.01
 1999 249    17    14     0.2     0.0     0.2    0.00    5.15      0.0     0.1     0.2     0.0    5.71    2.65     0.0    1.5    0.0    0.00    0.01
 1999 250    18    15     0.2     0.0     0.2    0.00    5.14      0.0     0.1     0.2     0.0    5.71    2.65     0.0    1.5    0.0    0.00    0.02
 1999 251    19    16     0.3     0.0     0.3    0.00    5.12      0.0     0.1     0.2     0.0    5.71    2.65     0.0    1.5    0.0    0.00    0.02
 1999 252    20    17     0.3     0.0     0.3    0.00    5.09      0.1     0.1     0.2     0.0    5.71    2.65     0.0    1.5    0.0    0.00    0.02
 1999 253    21    18     0.3     0.0     0.3    0.00    5.07      0.1     0.1     0.3     0.0    5.71    2.65     0.0    1.5    0.0    0.00    0.02
 1999 254    22    19     0.3     0.0     0.3    0.00    5.05      0.1     0.2     0.3     0.0    5.71    2.65     0.0    1.5    0.0    0.00    0.02
 1999 255    23    20     0.3     0.0     0.3    0.00    5.02      0.1     0.2     0.3     0.0    5.71    2.65     0.0    1.5    0.0    0.00    0.02
 1999 256    24    21     0.3     0.0     0.3    0.00    4.99      0.1     0.2     0.3     0.0    5.71    2.65     0.0    1.5    0.0    0.00    0.02
 1999 257    25    22     0.3     0.0     0.3    0.00    4.97      0.1     0.2     0.3     0.0    5.71    2.65     0.0    1.5    0.0    0.00    0.02
 1999 258    26    23     0.4     0.0     0.4    0.00    4.94      0.1     0.3     0.3     0.0    5.71    2.65     0.0    1.5    0.0    0.00    0.02
 1999 259    27    24     0.4     0.0     0.4    0.00    4.90      0.1     0.3     0.3     0.1    5.72    2.65     0.0    1.5    0.0    0.00    0.02
 1999 260    28    25     0.4     0.0     0.4    0.00    4.85      0.1     0.3     0.3     0.1    5.72    2.65     0.0    1.5    0.0    0.00    0.02
 1999 261    29    26     0.5     0.0     0.5    0.00    4.88      0.1     0.4     0.4     0.1    5.72    2.66     0.0    1.5    0.0    0.00    0.02
 1999 262    30    27     0.5     0.0     0.5    0.00    4.92      0.1     0.5     0.4     0.1    5.72    2.66     0.0    1.5    0.0    0.00    0.03
 1999 263    31    28     0.6     0.0     0.6    0.00    4.92      0.1     0.5     0.5     0.1    5.72    2.66     0.0    1.5    0.0    0.00    0.03
 1999 264    32    29     0.6     0.0     0.6    0.00    4.92      0.1     0.6     0.5     0.1    5.72    2.66     0.0    1.5    0.0    0.00    0.03
 1999 265    33    30     0.7     0.0     0.7    0.00    4.92      0.1     0.7     0.6     0.1    5.72    2.66     0.0    1.5    0.0    0.00    0.03
 1999 266    34    31     0.8     0.0     0.8    0.00    4.91      0.1     0.8     0.6     0.1    5.72    2.66     0.0    1.5    0.0    0.00    0.03
 1999 267    35    32     0.8     0.0     0.8    0.00    4.88      0.1     0.9     0.7     0.1    5.72    2.66     0.0    1.5    0.0    0.00    0.03
 1999 268    36    33     0.8     0.0     0.8    0.00    4.88      0.1     0.9     0.7     0.1    5.72    2.66     0.0    1.5    0.0    0.00    0.03
 1999 269    37    34     0.9     0.0     0.9    0.00    4.90      0.1     1.0     0.8     0.1    5.72    2.66     0.0    1.5    0.0    0.00    0.04
 1999 270    38    35     1.0     0.0     1.0    0.00    4.90      0.1     1.1     0.8     0.1    5.72    2.66     0.0    1.5    0.0    0.00    0.04
 1999 271    39    36     1.1     0.0     1.1    0.00    4.90      0.1     1.2     0.9     0.2    5.72    2.66     0.0    1.5    0.0    0.00    0.04
 1999 272    40    37     1.1     0.0     1.1    0.00    4.89      0.1     1.3     1.0     0.2    5.72    2.66     0.0    1.5    0.0    0.00    0.04
 1999 273    41    38     1.2     0.0     1.2    0.00    4.85      0.1     1.4     1.0     0.2    5.72    2.66     0.0    1.5    0.0    0.00    0.04
 1999 274    42    39     1.3     0.0     1.3    0.00    4.86      0.1     1.4     1.1     0.2    5.72    2.66     0.0    1.5    0.0    0.00    0.05
 1999 275    43    40     1.3     0.0     1.3    0.00    4.84      0.1     1.5     1.1     0.2    5.72    2.66     0.0    1.5    0.0    0.00    0.05
 1999 276    44    41     1.4     0.0     1.4    0.00    4.83      0.1     1.6     1.2     0.2    5.72    2.66     0.0    1.5    0.0    0.00    0.05
 1999 277    45    42     1.4     0.0     1.4    0.00    4.81      0.1     1.7     1.2     0.2    5.72    2.66     0.0    1.5    0.0    0.00    0.05
 1999 278    46    43     1.5     0.0     1.5    0.00    4.81      0.1     1.7     1.2     0.2    5.72    2.66     0.0    1.5    0.0    0.00    0.05
 1999 279    47    44     1.6     0.0     1.6    0.00    4.78      0.1     1.8     1.3     0.3    5.72    2.66     0.0    1.5    0.0    0.00    0.06
 1999 280    48    45     1.7     0.0     1.7    0.00    4.79      0.1     1.9     1.4     0.3    5.72    2.66     0.0    1.5    0.0    0.00    0.06
 1999 281    49    46     1.8     0.0     1.8    0.00    4.79      0.1     2.1     1.5     0.3    5.72    2.66     0.0    1.5    0.0    0.00    0.06
 1999 282    50    47     1.9     0.0     1.9    0.00    4.79      0.1     2.2     1.6     0.3    5.72    2.66     0.0    1.5    0.0    0.00    0.07
 1999 283    51    48     2.1     0.0     2.1    0.00    4.76      0.1     2.4     1.7     0.4    5.72    2.66     0.0    1.5    0.0    0.00    0.07
 1999 284    52    49     2.3     0.0     2.3    0.00    4.71      0.1     2.7     1.9     0.4    5.72    2.66     0.0    1.5    0.0    0.00    0.07
 1999 285    53    50     2.4     0.0     2.4    0.00    4.70      0.1     2.8     1.9     0.4    5.72    2.66     0.0    1.5    0.0    0.00    0.08
 1999 286    54    51     2.5     0.0     2.5    0.00    4.69      0.1     2.9     2.0     0.5    5.72    2.66     0.0    1.5    0.0    0.00    0.08
 1999 287    55    52     2.6     0.0     2.6    0.00    4.69      0.1     3.1     2.1     0.5    5.72    2.66     0.0    1.5    0.0    0.00    0.09
 1999 288    56    53     2.8     0.0     2.8    0.00    4.65      0.1     3.3     2.2     0.6    5.72    2.66     0.0    1.5    0.0    0.00    0.09
 1999 289    57    54     3.0     0.0     3.0    0.00    4.60      0.1     3.6     2.4     0.6    5.72    2.66     0.0    1.5    0.0    0.00    0.09
 1999 290    58    55     3.4     0.0     3.4    0.00    4.53      0.1     4.1     2.6     0.8    5.72    2.66     0.0    1.5    0.0    0.00    0.10
 1999 291    59    56     3.8     0.0     3.8    0.00    4.45      0.2     4.6     2.8     0.9    5.73    2.66     0.0    1.5    0.0    0.00    0.10
 1999 292    60    57     4.2     0.0     4.2    0.00    4.37      0.2     5.1     3.1     1.1    5.73    2.66     0.0    1.5    0.0    0.00    0.11
 1999 293    61    58     4.6     0.0     4.6    0.00    4.29      0.2     5.7     3.3     1.3    5.73    2.66     0.0    1.5    0.0    0.00    0.11
 1999 294    62    59     5.2     0.0     5.2    0.00    4.31      0.2     6.3     3.7     1.5    5.73    2.66     0.0    1.5    0.0    0.00    0.12
 1999 295    63    60     5.8     0.0     5.8    0.00    4.32      0.2     7.0     4.1     1.6    5.72    2.66     0.0    1.5    0.0    0.00    0.13
 1999 296    64    61     6.3     0.0     6.3    0.00    4.33      0.2     7.6     4.6     1.8    5.72    2.66     0.0    1.5    0.0    0.00    0.13
 1999 297    65    62     6.9     0.0     6.9    0.00    4.33      0.3     8.3     5.0     1.9    5.72    2.66     0.0    1.5    0.0    0.00    0.14
 1999 298    66    63     7.6     0.0     7.6    0.00    4.34      0.3     9.1     5.5     2.1    5.72    2.66     0.0    1.5    0.0    0.00    0.15
 1999 299    67    64     8.7     0.0     8.7    0.00    4.34      0.3    10.4     6.3     2.4    5.72    2.66     0.0    1.5    0.0    0.00    0.16
 1999 300    68    65     9.9     0.0     9.9    0.00    4.34      0.3    11.8     7.2     2.8    5.72    2.66     0.0    1.5    0.0    0.00    0.17
 1999 301    69    66    11.2     0.0    11.2    0.00    4.33      0.3    13.3     8.1     3.1    5.72    2.66     0.0    1.5    0.0    0.00    0.18
 1999 302    70    67    12.8     0.0    12.8    0.00    4.33      0.4    15.1     9.2     3.6    5.72    2.66     0.0    1.5    0.0    0.00    0.20
 1999 303    71    68    14.1     0.0    14.1    0.00    4.32      0.4    16.6    10.1     4.0    5.72    2.66     0.0    1.5    0.0    0.00    0.21
 1999 304    72    69    16.0     0.0    16.0    0.00    4.31      0.4    18.8    11.4     4.6    5.72    2.66     0.0    1.5    0.0    0.00    0.23
 1999 305    73    70    17.3     0.0    17.3    0.00    4.31      0.5    20.2    12.3     4.9    5.72    2.66     0.0    1.5    0.0    0.00    0.24
 1999 306    74    71    19.7     0.0    19.7    0.00    4.29      0.5    23.1    14.0     5.7    5.72    2.66     0.0    1.5    0.0    0.00    0.26
 1999 307    75    72    22.2     0.0    22.2    0.00    4.26      0.6    26.0    15.7     6.6    5.72    2.65     0.0    1.5    0.0    0.00    0.28
 1999 308    76    73    23.1     0.0    23.1    0.00    4.26      0.6    27.1    16.3     6.9    5.71    2.65     0.0    1.5    0.0    0.00    0.30
 1999 309    77    74    25.8     0.0    25.8    0.00    4.23      0.6    30.2    18.1     7.7    5.70    2.64     0.0    1.5    0.0    0.00    0.31
 1999 310    78    75    29.2     0.0    29.2    0.00    4.20      0.7    34.1    20.3     8.9    5.70    2.63     0.0    1.5    0.0    0.02    0.34
 1999 311    79    76    31.2     0.0    31.2    0.00    4.20      0.7    36.6    21.6     9.6    5.71    2.62     0.0    1.5    0.0    0.03    0.36
 1999 312    80    77    33.6     0.0    33.6    0.00    4.18      0.8    39.4    23.2    10.4    5.71    2.62     0.0    1.5    0.0    0.05    0.37
 1999 313    81    78    35.8     0.0    35.8    0.00    4.18      0.8    42.1    24.7    11.2    5.72    2.62     0.0    1.5    0.0    0.06    0.38
 1999 314    82    79    38.4     0.0    38.4    0.00    4.17      0.9    45.2    26.4    12.0    5.72    2.61     0.0    1.5    0.0    0.08    0.40
 1999 315    83    80    42.1     0.0    42.1    0.00    4.15      0.9    49.6    28.7    13.3    5.73    2.61     0.0    1.5    0.0    0.11    0.42
 1999 316    84    81    46.2     0.0    46.2    0.00    4.14      1.0    54.5    31.4    14.8    5.73    2.60     0.0    1.5    0.0    0.16    0.45
 1999 317    85    82    50.5     0.0    50.5    0.00    4.12      1.1    59.5    34.1    16.4    5.75    2.60     0.0    1.5    0.0    0.22    0.50
 1999 318    86    83    54.7     0.0    54.7    0.00    4.12      1.2    64.6    36.8    17.9    5.76    2.59     0.0    1.5    0.0    0.27    0.54
 1999 319    87    84    59.5     0.0    59.5    0.00    4.10      1.3    70.2    39.8    19.7    5.77    2.59     0.0    1.5    0.0    0.36    0.59
 1999 320    88    85    63.9     0.0    63.9    0.00    4.05      1.8    75.0    42.5    21.4    5.75    2.56     0.0    1.5    0.5    0.48    0.64
 1999 321    89    86    68.3     0.0    68.3    0.00    4.01      2.8    79.0    45.2    23.1    5.72    2.53     0.0    1.5    1.0    0.54    0.70
 1999 322    90    87    72.7     0.0    72.6    0.00    3.97      3.6    83.3    47.8    24.7    5.69    2.50     4.0    1.5    0.8    0.60    0.76
 1999 323    91    88    76.3     0.0    75.9    0.00    3.89      4.9    86.3    49.8    26.0    5.62    2.45     4.0    1.5    1.2    0.67    0.82
 1999 324    92    89    79.5     0.0    78.7    0.00    3.79      6.5    88.6    51.5    27.2    5.52    2.38     4.0    1.5    1.4    0.74    0.89
 1999 325    93    90    83.1     0.0    81.8    0.00    3.68      8.4    91.1    53.5    28.3    5.41    2.29     4.0    1.4    1.6    0.80    0.95
 1999 326    94    91    85.6     0.0    83.6    0.00    3.54     10.6    92.4    54.7    28.9    5.29    2.18     4.0    1.4    1.8    0.87    1.01
 1999 327    95    92    88.8     0.0    86.0    0.00    3.51     12.6    93.9    56.1    29.9    5.27    2.16     3.9    1.4    2.1    0.93    1.08
 1999 328    96    93    91.5     0.0    87.9    0.00    3.41     15.2    94.9    57.2    30.6    5.18    2.08     3.9    1.4    2.1    1.00    1.15
 1999 329    97    94    95.9     0.0    91.3    0.00    3.39     17.8    97.4    59.2    32.1    5.17    2.08     3.9    1.4    2.5    1.07    1.22
 1999 330    98    95    97.9     0.0    92.2    0.00    3.36     19.2    98.2    59.7    32.5    5.14    2.06     3.9    1.3    1.4    1.14    1.29
 1999 331    99    96   100.5     0.0    93.4    0.00    3.27     22.3    98.6    60.5    33.0    5.06    1.98     3.9    1.3    2.6    1.21    1.37
 1999 332   100    97   103.5     0.0    95.1    0.00    3.18     25.9    99.2    61.5    33.6    4.97    1.92     3.8    1.3    3.0    1.29    1.46
 1999 333   101    98   108.0     0.0    97.9    0.00    3.15     29.9   100.5    63.0    34.9    4.94    1.90     3.8    1.3    3.5    1.36    1.55
 1999 334   102    99   111.8     0.0   100.0    0.00    3.09     34.6   100.8    64.0    35.9    4.88    1.87     3.8    1.3    4.0    1.45    1.66
 1999 335   103   100   115.0     0.0   101.0    0.00    3.06     37.0   101.9    64.5    36.5    4.84    1.85     3.8    1.3    2.4    1.53    1.77
 1999 336   104   101   116.9     0.0   100.4    0.00    3.04     38.7   102.2    64.1    36.3    4.82    1.84     3.8    1.3    1.7    1.60    1.85
 1999 337   105   102   121.0     0.0   101.9    0.00    3.02     41.9   103.4    64.9    37.0    4.80    1.83     3.8    1.3    3.2    1.67    1.93
 1999 338   106   103   126.1     0.0   104.2    0.00    3.00     46.4   104.3    66.0    38.2    4.78    1.82     3.8    1.3    4.6    1.75    2.03
 1999 339   107   104   128.6     0.0   103.8    0.00    2.97     47.7   105.6    65.8    38.1    4.75    1.80     3.8    1.3    1.3    1.81    2.09
 1999 340   108   105   133.2     0.0   106.1    0.00    2.96     52.2   106.2    66.9    39.1    4.75    1.80     3.8    1.3    4.4    1.85    2.15
 1999 341   109   106   137.1     0.0   107.3    0.00    2.95     56.1   106.5    67.5    39.8    4.74    1.80     3.8    1.3    3.8    1.90    2.20
 1999 342   110   107   141.8     0.0   109.4    0.00    2.93     60.9   106.9    68.5    40.9    4.72    1.79     3.8    1.3    4.7    1.99    2.28
 1999 343   111   108   146.0     0.0   111.5    0.00    2.91     65.9   107.4    69.5    42.0    4.70    1.78     3.7    1.3    4.8    2.79    2.38
 1999 344   112   109   149.5     0.1   113.5    6.23    2.89     70.6   108.2    70.4    43.1    4.69    1.77     3.7    1.3    4.7    4.38    2.49
 1999 345   113   110   153.0     0.3   114.6    6.27    2.87     74.5   109.0    70.9    43.8    4.67    1.76     3.7    1.3    3.9    5.41    2.60
 1999 346   114   111   154.6     0.7   113.8    6.25    2.84     76.9   109.8    70.3    43.5    4.64    1.75     3.7    1.3    2.4    6.75    2.70
 1999 347   115   112   156.5     1.2   113.2    6.22    2.83     80.3   110.6    69.8    43.4    4.62    1.74     3.7    1.3    3.4    8.27    2.80
 1999 348   116   113   161.2     1.9   114.8    6.21    2.81     85.1   111.7    70.5    44.3    4.61    1.74     3.7    1.3    4.8    9.15    2.90
 1999 349   117   114   165.7     2.6   115.8    6.25    2.80     90.2   112.1    70.8    45.0    4.60    1.73     3.7    1.3    5.0    9.89    3.02
 1999 350   118   115   170.0     3.4   117.1    6.26    2.79     95.7   112.6    71.3    45.8    4.59    1.73     3.6    1.3    5.2   11.05    3.13
 1999 351   119   116   173.2     4.3   117.2    6.28    2.77    100.7   113.6    71.2    46.1    4.57    1.72     3.6    1.3    5.1   12.37    3.25
 1999 352   120   117   175.8     5.4   116.9    6.33    2.75    105.2   114.3    70.8    46.1    4.55    1.71     3.6    1.3    4.5   13.87    3.38
 1999 353   121   118   178.4     6.7   116.5    6.35    2.72    110.6   114.9    70.4    46.1    4.52    1.69     3.6    1.2    5.4   15.78    3.50
 1999 354   122   119   181.4     8.0   116.6    6.32    2.70    115.9   116.1    70.3    46.3    4.50    1.68     3.6    1.2    5.3   17.48    3.61
 1999 355   123   120   183.2     9.7   115.6    6.32    2.68    120.2   116.5    69.6    46.0    4.47    1.67     3.6    1.2    4.4   19.60    3.72
 1999 356   124   121   185.7    11.6   115.1    6.31    2.66    125.8   117.6    69.2    45.9    4.45    1.66     3.6    1.2    5.4   22.06    3.83
 1999 357   125   122   188.3    13.5   115.0    6.29    2.64    131.4   118.5    69.0    46.0    4.42    1.64     3.5    1.2    5.5   24.34    3.91
 1999 358   126   123   191.8    15.9   114.3    6.30    2.62    136.5   119.4    68.5    45.9    4.40    1.63     3.5    1.2    5.1   25.37    4.02
 1999 359   127   124   195.1    18.3   114.3    6.35    2.61    141.4   119.9    68.2    46.0    4.39    1.63     3.5    1.2    5.0   27.13    4.14
 1999 360   128   125   196.0    20.6   113.1    6.41    2.59    144.0   120.8    67.5    45.6    4.36    1.62     3.5    1.2    2.6   29.71    4.27
 1999 361   129   126   198.8    23.3   111.8    6.48    2.58    146.7   121.8    66.7    45.1    4.35    1.61     3.5    1.2    2.7   30.63    4.40
 1999 362   130   127   199.0    26.8   109.7    6.45    2.55    148.5   122.1    65.5    44.2    4.31    1.59     3.4    1.2    1.8   32.01    4.51
 1999 363   131   128   200.8    30.5   107.5    6.42    2.53    150.6   123.8    64.2    43.3    4.28    1.57     3.4    1.2    2.1   33.01    4.61
 1999 364   132   129   200.9    34.2   105.2    6.40    2.50    152.4   123.9    62.9    42.3    4.24    1.55     3.3    1.2    1.7   34.48    4.71
 1999 365   133   130   203.7    38.0   103.2    6.38    2.47    158.3   124.4    61.7    41.5    4.20    1.53     3.3    1.2    5.6   36.06    4.81
 2000 001   134   131   207.0    42.0   101.6    6.36    2.44    163.2   125.7    60.7    40.9    4.16    1.51     3.3    1.2    4.9   37.44    4.90
 2000 002   135   132   210.3    46.3    99.7    6.35    2.41    168.9   125.8    59.6    40.1    4.12    1.49     3.3    1.2    5.7   38.81    5.00
 2000 003   136   133   213.8    50.7    98.1    6.34    2.38    174.4   126.6    58.6    39.5    4.09    1.47     3.2    1.2    5.5   40.12    5.09
 2000 004   137   134   216.7    55.3    96.3    6.33    2.35    179.6   127.1    57.5    38.8    4.05    1.45     3.2    1.2    5.3   41.82    5.18
 2000 005   138   135   219.6    60.4    94.1    6.34    2.32    184.2   128.1    56.2    37.9    4.00    1.43     3.2    1.2    4.5   43.60    5.29
 2000 006   139   136   222.8    65.7    92.2    6.35    2.29    189.4   128.7    55.1    37.1    3.96    1.41     3.1    1.1    5.2   45.09    5.39
 2000 007   140   137   226.1    71.3    90.3    6.37    2.26    193.7   129.8    53.9    36.3    3.92    1.39     3.1    1.1    4.3   46.46    5.50
 2000 008   141   138   229.9    76.9    88.9    6.39    2.24    198.1   130.8    53.1    35.8    3.89    1.38     3.1    1.1    4.5   47.82    5.60
 2000 009   142   139   232.2    82.8    87.1    6.42    2.22    201.5   131.2    52.0    35.1    3.86    1.36     3.0    1.1    3.4   49.36    5.71
 2000 010   143   140   235.3    89.5    84.8    6.43    2.18    205.2   132.3    50.6    34.1    3.81    1.34     3.0    1.1    3.6   50.41    5.82
 2000 011   144   141   239.1    96.3    82.5    6.44    2.15    209.6   133.3    49.3    33.2    3.76    1.31     2.9    1.1    4.4   51.45    5.92
 2000 012   145   142   241.5   103.2    80.4    6.46    2.11    213.4   134.0    48.1    32.3    3.71    1.29     2.8    1.1    3.8   53.27    6.02
 2000 013   146   143   245.4   110.4    78.6    6.47    2.08    217.5   134.7    47.0    31.6    3.67    1.27     2.8    1.1    4.1   54.14    6.11
 2000 014   147   144   245.7   115.4    76.4    6.46    2.05    217.8   135.4    45.7    30.7    3.61    1.24     2.7    1.1    0.3   55.03    6.24
 2000 015   148   145   249.2   123.7    74.0    6.49    2.00    220.9   136.2    44.3    29.7    3.55    1.21     2.6    1.1    3.1   55.61    6.34
 2000 016   149   146   252.5   131.9    71.7    6.51    1.96    223.4   137.6    43.0    28.7    3.49    1.18     2.5    1.1    2.5   56.16    6.44
 2000 017   150   147   253.0   136.9    69.4    6.51    1.92    223.5   138.3    41.6    27.8    3.43    1.15     2.5    1.1    0.2   56.64    6.78
 2000 018   151   148   257.5   146.0    67.2    6.52    1.87    227.7   139.3    40.3    26.9    3.36    1.12     2.4    1.1    4.2   57.47    6.86
 2000 019   152   149   262.2   154.9    65.0    6.53    1.83    231.7   140.4    39.0    26.0    3.30    1.09     2.3    1.0    4.0   57.94    6.95
 2000 020   153   150   266.8   163.5    62.9    6.54    1.78    235.8   141.2    37.8    25.1    3.23    1.06     2.2    1.0    4.1   58.34    7.03
 2000 021   154   151   270.3   170.9    60.9    6.56    1.74    239.4   141.3    36.6    24.3    3.17    1.04     2.2    1.0    3.6   58.66    7.12
 2000 022   155   152   271.5   175.9    58.9    6.56    1.70    239.9   142.3    35.4    23.5    3.11    1.01     2.1    1.0    0.5   59.03    7.20
 2000 023   156   153   275.9   183.8    57.0    6.56    1.66    243.8   143.0    34.3    22.7    3.05    0.98     2.0    1.0    3.9   59.28    7.28
 2000 024   157   154   279.3   190.4    55.2    6.56    1.62    246.3   144.1    33.2    22.0    2.99    0.96     1.9    1.0    2.4   59.49    7.35
 2000 025   158   155   280.3   194.5    53.4    6.44    1.57    246.3   145.2    32.2    21.3    2.92    0.93     1.9    1.0    0.0   59.65    7.42
 2000 026   159   156   273.0   197.8    44.2    6.34    1.44    246.3   145.5    24.8    19.4    2.82    0.89     1.8    1.0    0.0   67.28    7.49
 2000 027   160   157   268.1   201.3    37.0    6.25    1.33    246.3   146.4    19.1    17.9    2.74    0.86     1.7    1.0    0.0   73.15    7.55
 2000 028   161   158   264.0   203.9    31.5    6.18    1.23    246.3   146.7    14.8    16.7    2.66    0.83     1.7    1.0    0.0   77.67    7.63
 2000 029   162   159   261.3   206.6    27.1    6.16    1.15    246.3   147.6    11.4    15.7    2.59    0.81     1.6    1.0    0.0   81.17    7.70
 2000 030   163   160   258.6   208.0    23.8    6.16    1.08    246.3   147.6     8.9    14.9    2.55    0.80     1.6    1.0    0.0   83.87    8.19
 2000 031   164   161   256.6   209.6    21.2    6.16    1.01    246.3   147.6     6.9    14.2    2.49    0.78     1.5    1.0    0.0   85.98    8.64
 2000 032   165   162   255.0   210.2    19.3    6.16    0.97    246.3   147.6     5.5    13.8    2.47    0.78     1.5    1.0    0.0   87.62    9.07
 2000 033   166   163   253.7   210.2    18.0    6.16    0.94    246.3   147.6     4.4    13.6    2.48    0.78     1.5    1.0    0.0   88.92    9.48
 2000 034   167   164   252.6   210.3    16.9    6.16    0.91    246.3   147.6     3.5    13.4    2.48    0.78     1.5    1.0    0.0   89.95    9.86
 2000 035   168   165   251.8   210.6    16.0    6.16    0.89    246.3   147.6     2.8    13.2    2.48    0.78     1.5    1.0    0.0   90.78   10.21
 2000 036   169   166   251.1   210.6    15.4    6.16    0.87    246.3   147.6     2.2    13.1    2.48    0.78     1.5    1.0    0.0   91.44   10.55
 2000 037   170   167   250.6   210.6    14.8    6.16    0.86    246.3   147.6     1.8    13.0    2.49    0.79     1.5    1.0    0.0   91.97   10.87

*DSSAT Cropping System Model Ver. 4.0.2.000               Aug 23, 2016; 16:35:33

*RUN   2        : UYSB                    
 MODEL          : CRGRO040 - Soybean         
 EXPERIMENT     : UYSB0221 SB    late to create DSS                             
 TREATMENT  1   : UYSB                    

@YEAR DOY   DAS   DAP    CNAD    GNAD    VNAD    GN%D    VN%D     NFXC    NUPC    LNAD    SNAD    LN%D    SN%D    SHND   RN%D   NFXD   SNN0C   SNN1C
 2000 235     3     0     0.0     0.0     0.0    0.00    0.00      0.0     0.0     0.0     0.0    0.00    0.00     0.0    0.0    0.0    0.00    0.00
 2000 236     4     1     0.0     0.0     0.0    0.00    0.00      0.0     0.0     0.0     0.0    0.00    0.00     0.0    0.0    0.0    0.00    0.00
 2000 237     5     2     0.0     0.0     0.0    0.00    0.00      0.0     0.0     0.0     0.0    0.00    0.00     0.0    0.0    0.0    0.00    0.00
 2000 238     6     3     0.0     0.0     0.0    0.00    0.00      0.0     0.0     0.0     0.0    0.00    0.00     0.0    0.0    0.0    0.00    0.00
 2000 239     7     4     0.0     0.0     0.0    0.00    0.00      0.0     0.0     0.0     0.0    0.00    0.00     0.0    0.0    0.0    0.00    0.00
 2000 240     8     5     0.0     0.0     0.0    0.00    0.00      0.0     0.0     0.0     0.0    0.00    0.00     0.0    0.0    0.0    0.00    0.00
 2000 241     9     6     0.0     0.0     0.0    0.00    0.00      0.0     0.0     0.0     0.0    0.00    0.00     0.0    0.0    0.0    0.00    0.00
 2000 242    10     7     0.0     0.0     0.0    0.00    0.00      0.0     0.0     0.0     0.0    0.00    0.00     0.0    0.0    0.0    0.00    0.00
 2000 243    11     8     0.0     0.0     0.0    0.00    0.00      0.0     0.0     0.0     0.0    0.00    0.00     0.0    0.0    0.0    0.00    0.00
 2000 244    12     9     0.0     0.0     0.0    0.00    0.00      0.0     0.0     0.0     0.0    0.00    0.00     0.0    0.0    0.0    0.00    0.00
 2000 245    13    10     0.2     0.0     0.2    0.00    5.15      0.0     0.0     0.2     0.0    5.70    2.64     0.0    1.5    0.0    0.00    0.00
 2000 246    14    11     0.2     0.0     0.2    0.00    5.15      0.0     0.0     0.2     0.0    5.70    2.64     0.0    1.5    0.0    0.00    0.01
 2000 247    15    12     0.2     0.0     0.2    0.00    5.14      0.0     0.0     0.2     0.0    5.70    2.64     0.0    1.5    0.0    0.00    0.01
 2000 248    16    13     0.2     0.0     0.2    0.00    5.13      0.0     0.0     0.2     0.0    5.70    2.64     0.0    1.5    0.0    0.00    0.01
 2000 249    17    14     0.2     0.0     0.2    0.00    5.12      0.0     0.1     0.2     0.0    5.70    2.64     0.0    1.5    0.0    0.00    0.01
 2000 250    18    15     0.2     0.0     0.2    0.00    5.11      0.0     0.1     0.2     0.0    5.70    2.64     0.0    1.5    0.0    0.00    0.01
 2000 251    19    16     0.3     0.0     0.3    0.00    5.09      0.1     0.1     0.2     0.0    5.70    2.65     0.0    1.5    0.0    0.00    0.01
 2000 252    20    17     0.3     0.0     0.3    0.00    5.06      0.1     0.1     0.3     0.0    5.71    2.65     0.0    1.5    0.0    0.00    0.01
 2000 253    21    18     0.3     0.0     0.3    0.00    5.05      0.1     0.2     0.3     0.0    5.71    2.65     0.0    1.5    0.0    0.00    0.02
 2000 254    22    19     0.3     0.0     0.3    0.00    5.03      0.1     0.2     0.3     0.0    5.71    2.65     0.0    1.5    0.0    0.00    0.02
 2000 255    23    20     0.3     0.0     0.3    0.00    5.01      0.1     0.2     0.3     0.0    5.71    2.65     0.0    1.5    0.0    0.00    0.02
 2000 256    24    21     0.3     0.0     0.3    0.00    5.00      0.1     0.2     0.3     0.0    5.71    2.65     0.0    1.5    0.0    0.00    0.02
 2000 257    25    22     0.3     0.0     0.3    0.00    5.00      0.1     0.2     0.3     0.0    5.71    2.65     0.0    1.5    0.0    0.00    0.02
 2000 258    26    23     0.3     0.0     0.3    0.00    5.00      0.1     0.2     0.3     0.0    5.71    2.65     0.0    1.5    0.0    0.00    0.03
 2000 259    27    24     0.4     0.0     0.4    0.00    5.00      0.1     0.2     0.3     0.0    5.71    2.65     0.0    1.5    0.0    0.00    0.03
 2000 260    28    25     0.4     0.0     0.4    0.00    4.98      0.1     0.3     0.3     0.0    5.72    2.66     0.0    1.5    0.0    0.00    0.03
 2000 261    29    26     0.4     0.0     0.4    0.00    4.96      0.1     0.3     0.3     0.1    5.72    2.66     0.0    1.5    0.0    0.00    0.03
 2000 262    30    27     0.4     0.0     0.4    0.00    4.95      0.1     0.3     0.3     0.1    5.72    2.66     0.0    1.5    0.0    0.00    0.03
 2000 263    31    28     0.4     0.0     0.4    0.00    4.91      0.1     0.3     0.4     0.1    5.72    2.66     0.0    1.5    0.0    0.00    0.03
 2000 264    32    29     0.4     0.0     0.4    0.00    4.94      0.1     0.4     0.4     0.1    5.72    2.66     0.0    1.5    0.0    0.00    0.03
 2000 265    33    30     0.5     0.0     0.5    0.00    4.97      0.1     0.4     0.4     0.1    5.72    2.66     0.0    1.5    0.0    0.00    0.04
 2000 266    34    31     0.5     0.0     0.5    0.00    4.99      0.1     0.5     0.5     0.1    5.72    2.66     0.0    1.5    0.0    0.00    0.04
 2000 267    35    32     0.6     0.0     0.6    0.00    4.99      0.1     0.5     0.5     0.1    5.72    2.66     0.0    1.5    0.0    0.00    0.04
 2000 268    36    33     0.6     0.0     0.6    0.00    4.99      0.1     0.6     0.5     0.1    5.72    2.66     0.0    1.5    0.0    0.00    0.04
 2000 269    37    34     0.6     0.0     0.6    0.00    4.99      0.1     0.6     0.6     0.1    5.72    2.66     0.0    1.5    0.0    0.00    0.04
 2000 270    38    35     0.7     0.0     0.7    0.00    4.99      0.1     0.7     0.6     0.1    5.72    2.66     0.0    1.5    0.0    0.00    0.04
 2000 271    39    36     0.7     0.0     0.7    0.00    4.96      0.1     0.7     0.6     0.1    5.72    2.66     0.0    1.5    0.0    0.00    0.04
 2000 272    40    37     0.8     0.0     0.8    0.00    4.92      0.1     0.8     0.7     0.1    5.72    2.66     0.0    1.5    0.0    0.00    0.04
 2000 273    41    38     0.9     0.0     0.9    0.00    4.89      0.1     1.0     0.8     0.1    5.72    2.66     0.0    1.5    0.0    0.00    0.04
 2000 274    42    39     1.0     0.0     1.0    0.00    4.87      0.1     1.1     0.8     0.2    5.72    2.66     0.0    1.5    0.0    0.00    0.04
 2000 275    43    40     1.1     0.0     1.1    0.00    4.84      0.1     1.2     0.9     0.2    5.72    2.66     0.0    1.5    0.0    0.00    0.05
 2000 276    44    41     1.1     0.0     1.1    0.00    4.84      0.1     1.3     1.0     0.2    5.72    2.66     0.0    1.5    0.0    0.00    0.05
 2000 277    45    42     1.2     0.0     1.2    0.00    4.82      0.1     1.4     1.0     0.2    5.72    2.66     0.0    1.5    0.0    0.00    0.05
 2000 278    46    43     1.3     0.0     1.3    0.00    4.80      0.1     1.5     1.1     0.2    5.72    2.66     0.0    1.5    0.0    0.00    0.05
 2000 279    47    44     1.4     0.0     1.4    0.00    4.76      0.1     1.7     1.2     0.3    5.72    2.66     0.0    1.5    0.0    0.00    0.06
 2000 280    48    45     1.5     0.0     1.5    0.00    4.73      0.1     1.8     1.3     0.3    5.72    2.66     0.0    1.5    0.0    0.00    0.06
 2000 281    49    46     1.7     0.0     1.7    0.00    4.72      0.1     2.0     1.4     0.3    5.72    2.66     0.0    1.5    0.0    0.00    0.06
 2000 282    50    47     1.9     0.0     1.9    0.00    4.70      0.1     2.2     1.5     0.4    5.72    2.66     0.0    1.5    0.0    0.00    0.06
 2000 283    51    48     2.0     0.0     2.0    0.00    4.71      0.1     2.3     1.6     0.4    5.72    2.66     0.0    1.5    0.0    0.00    0.07
 2000 284    52    49     2.2     0.0     2.2    0.00    4.69      0.1     2.5     1.7     0.4    5.72    2.66     0.0    1.5    0.0    0.00    0.07
 2000 285    53    50     2.3     0.0     2.3    0.00    4.65      0.1     2.8     1.9     0.5    5.72    2.66     0.0    1.5    0.0    0.00    0.07
 2000 286    54    51     2.6     0.0     2.6    0.00    4.59      0.1     3.1     2.0     0.6    5.72    2.66     0.0    1.5    0.0    0.00    0.07
 2000 287    55    52     2.8     0.0     2.8    0.00    4.54      0.1     3.4     2.2     0.6    5.72    2.66     0.0    1.5    0.0    0.00    0.08
 2000 288    56    53     2.9     0.0     2.9    0.00    4.54      0.1     3.6     2.3     0.7    5.72    2.66     0.0    1.5    0.0    0.00    0.08
 2000 289    57    54     3.1     0.0     3.1    0.00    4.53      0.1     3.7     2.4     0.7    5.72    2.66     0.0    1.5    0.0    0.00    0.09
 2000 290    58    55     3.3     0.0     3.3    0.00    4.50      0.2     4.0     2.5     0.8    5.73    2.66     0.0    1.5    0.0    0.00    0.09
 2000 291    59    56     3.5     0.0     3.5    0.00    4.46      0.2     4.3     2.6     0.9    5.73    2.66     0.0    1.5    0.0    0.00    0.10
 2000 292    60    57     3.7     0.0     3.7    0.00    4.43      0.2     4.5     2.7     0.9    5.73    2.66     0.0    1.5    0.0    0.00    0.10
 2000 293    61    58     3.9     0.0     3.9    0.00    4.38      0.2     4.8     2.9     1.0    5.73    2.66     0.0    1.5    0.0    0.00    0.11
 2000 294    62    59     4.2     0.0     4.2    0.00    4.39      0.2     5.1     3.1     1.1    5.73    2.66     0.0    1.5    0.0    0.00    0.11
 2000 295    63    60     4.8     0.0     4.8    0.00    4.39      0.2     5.8     3.5     1.3    5.73    2.66     0.0    1.5    0.0    0.00    0.12
 2000 296    64    61     5.1     0.0     5.1    0.00    4.39      0.2     6.2     3.8     1.4    5.73    2.66     0.0    1.5    0.0    0.00    0.13
 2000 297    65    62     5.4     0.0     5.4    0.00    4.39      0.2     6.5     4.0     1.4    5.73    2.66     0.0    1.5    0.0    0.00    0.13
 2000 298    66    63     5.8     0.0     5.8    0.00    4.39      0.2     6.9     4.2     1.5    5.73    2.67     0.0    1.5    0.0    0.00    0.14
 2000 299    67    64     6.4     0.0     6.4    0.00    4.39      0.2     7.7     4.7     1.7    5.73    2.67     0.0    1.5    0.0    0.00    0.15
 2000 300    68    65     7.0     0.0     7.0    0.00    4.34      0.2     8.4     5.1     1.9    5.68    2.64     0.0    1.5    0.0    0.01    0.16
 2000 301    69    66     8.2     0.0     8.2    0.00    4.34      0.3     9.9     6.0     2.2    5.69    2.64     0.0    1.5    0.0    0.01    0.17
 2000 302    70    67     9.3     0.0     9.3    0.00    4.33      0.3    11.1     6.8     2.5    5.70    2.64     0.0    1.5    0.0    0.01    0.18
 2000 303    71    68    10.3     0.0    10.3    0.00    4.33      0.3    12.3     7.5     2.8    5.70    2.64     0.0    1.5    0.0    0.01    0.18
 2000 304    72    69    12.0     0.0    12.0    0.00    4.32      0.3    14.1     8.6     3.3    5.70    2.65     0.0    1.5    0.0    0.01    0.19
 2000 305    73    70    13.8     0.0    13.8    0.00    4.31      0.4    16.2     9.9     3.9    5.70    2.65     0.0    1.5    0.0    0.01    0.20
 2000 306    74    71    14.6     0.0    14.6    0.00    4.30      0.4    17.2    10.5     4.1    5.70    2.65     0.0    1.5    0.0    0.01    0.22
 2000 307    75    72    16.3     0.0    16.3    0.00    4.29      0.4    19.1    11.6     4.7    5.70    2.65     0.0    1.5    0.0    0.01    0.23
 2000 308    76    73    18.4     0.0    18.4    0.00    4.27      0.5    21.5    13.1     5.3    5.70    2.64     0.0    1.5    0.0    0.01    0.24
 2000 309    77    74    20.1     0.0    20.1    0.00    4.26      0.5    23.5    14.2     5.9    5.70    2.64     0.0    1.5    0.0    0.01    0.25
 2000 310    78    75    22.5     0.0    22.5    0.00    4.23      0.5    26.3    15.8     6.6    5.69    2.63     0.0    1.5    0.0    0.01    0.27
 2000 311    79    76    25.1     0.0    25.1    0.00    4.21      0.6    29.4    17.6     7.5    5.69    2.62     0.0    1.5    0.0    0.01    0.29
 2000 312    80    77    26.8     0.0    26.8    0.00    4.21      0.6    31.5    18.7     8.1    5.70    2.62     0.0    1.5    0.0    0.02    0.31
 2000 313    81    78    29.1     0.0    29.1    0.00    4.20      0.7    34.3    20.2     8.9    5.71    2.62     0.0    1.5    0.0    0.04    0.33
 2000 314    82    79    30.5     0.0    30.5    0.00    4.20      0.7    36.0    21.1     9.4    5.72    2.62     0.0    1.5    0.0    0.07    0.36
 2000 315    83    80    33.6     0.0    33.6    0.00    4.17      0.8    39.7    23.1    10.4    5.72    2.61     0.0    1.5    0.0    0.09    0.38
 2000 316    84    81    36.8     0.0    36.8    0.00    4.14      0.8    43.6    25.2    11.6    5.72    2.59     0.0    1.5    0.0    0.14    0.41
 2000 317    85    82    40.2     0.0    40.2    0.00    4.12      0.9    47.6    27.4    12.8    5.71    2.58     0.0    1.5    0.0    0.17    0.45
 2000 318    86    83    43.2     0.0    43.2    0.00    4.11      1.0    51.1    29.3    13.9    5.72    2.58     0.0    1.5    0.0    0.19    0.47
 2000 319    87    84    45.7     0.0    45.7    0.00    4.11      1.0    53.8    30.8    14.8    5.75    2.58     0.0    1.5    0.0    0.24    0.49
 2000 320    88    85    47.9     0.0    47.9    0.00    4.11      1.0    56.5    32.2    15.7    5.76    2.59     0.0    1.5    0.0    0.28    0.50
 2000 321    89    86    51.4     0.0    51.4    0.00    4.10      1.0    60.5    34.5    17.0    5.77    2.58     0.0    1.5    0.0    0.33    0.59
 2000 322    90    87    55.5     0.0    55.5    0.00    4.06      1.7    64.6    36.9    18.5    5.75    2.55     0.0    1.5    0.6    0.42    0.63
 2000 323    91    88    59.2     0.0    59.2    0.00    3.94      2.7    68.0    39.2    19.9    5.64    2.48     4.0    1.5    0.8    0.46    0.67
 2000 324    92    89    62.6     0.0    62.5    0.00    3.82      3.9    70.9    41.3    21.2    5.51    2.40     4.0    1.5    1.0    0.51    0.72
 2000 325    93    90    65.8     0.0    65.5    0.00    3.75      5.2    73.4    43.1    22.4    5.44    2.35     4.0    1.4    1.2    0.55    0.75
 2000 326    94    91    68.9     0.0    68.4    0.00    3.63      6.9    75.6    45.0    23.4    5.33    2.25     4.0    1.4    1.4    0.59    0.80
 2000 327    95    92    72.3     0.0    71.4    0.00    3.56      8.7    77.8    46.8    24.6    5.26    2.21     4.0    1.4    1.6    0.65    0.86
 2000 328    96    93    75.7     0.0    74.4    0.00    3.50     10.9    79.8    48.5    25.8    5.19    2.17     3.9    1.4    1.9    0.72    0.93
 2000 329    97    94    78.4     0.0    76.5    0.00    3.48     13.1    80.7    49.8    26.7    5.18    2.16     3.9    1.4    2.2    0.77    0.98
 2000 330    98    95    81.9     0.0    79.5    0.00    3.43     15.6    82.6    51.6    28.0    5.13    2.13     3.9    1.4    2.2    0.81    1.02
 2000 331    99    96    84.3     0.0    81.2    0.00    3.30     18.6    83.0    52.6    28.6    5.03    2.02     3.9    1.3    2.5    0.87    1.08
 2000 332   100    97    86.8     0.0    83.0    0.00    3.28     20.2    84.3    53.6    29.4    5.01    2.01     3.9    1.3    1.6    0.94    1.15
 2000 333   101    98    88.4     0.0    83.5    0.00    3.26     21.2    85.1    53.9    29.6    4.99    2.00     3.9    1.3    1.0    0.99    1.22
 2000 334   102    99    90.9     0.0    85.0    0.00    3.24     22.9    86.3    54.7    30.3    4.97    1.99     3.9    1.3    1.6    1.04    1.27
 2000 335   103   100    93.9     0.0    86.9    0.00    3.18     26.3    86.7    55.9    31.0    4.92    1.94     3.9    1.3    2.9    1.09    1.32
 2000 336   104   101    97.2     0.0    89.1    0.00    3.13     30.1    87.1    57.1    32.0    4.87    1.92     3.9    1.3    3.3    1.14    1.37
 2000 337   105   102   101.6     0.0    92.3    0.00    3.10     34.5    88.2    58.9    33.5    4.83    1.90     3.8    1.3    3.8    1.20    1.44
 2000 338   106   103   105.4     0.0    94.8    0.00    3.08     38.7    88.3    60.2    34.6    4.82    1.89     3.8    1.3    4.1    1.26    1.52
 2000 339   107   104   107.7     0.0    95.6    0.00    3.06     39.6    89.9    60.6    35.0    4.80    1.88     3.8    1.3    0.9    1.32    1.58
 2000 340   108   105   112.2     0.0    98.5    0.00    3.05     44.3    90.3    62.1    36.4    4.80    1.88     3.8    1.3    4.5    1.38    1.65
 2000 341   109   106   116.6     0.0   101.2    0.00    3.03     49.3    90.5    63.6    37.7    4.78    1.87     3.8    1.3    4.7    1.44    1.73
 2000 342   110   107   120.8     0.0   103.5    0.00    3.00     53.2    91.2    64.7    38.8    4.76    1.86     3.8    1.3    3.9    1.52    1.83
 2000 343   111   108   124.2     0.0   105.0    0.00    2.98     56.9    91.4    65.4    39.5    4.74    1.85     3.8    1.3    3.7    1.61    1.95
 2000 344   112   109   128.7     0.0   107.2    0.00    2.96     59.7    93.4    66.5    40.7    4.72    1.83     3.8    1.3    2.9    1.70    2.07
 2000 345   113   110   132.5     0.0   108.7    0.00    2.93     63.5    94.1    67.2    41.5    4.70    1.82     3.8    1.3    3.8    2.09    2.17
 2000 346   114   111   135.1     0.0   109.4    6.42    2.92     66.9    94.3    67.4    41.9    4.69    1.82     3.8    1.3    3.4    2.92    2.29
 2000 347   115   112   137.8     0.1   110.6    6.41    2.90     70.5    95.1    67.9    42.6    4.67    1.81     3.7    1.3    3.6    4.26    2.39
 2000 348   116   113   141.5     0.3   111.8    6.56    2.88     73.6    96.4    68.4    43.4    4.65    1.80     3.7    1.3    3.1    4.84    2.52
 2000 349   117   114   144.2     0.6   112.4    6.51    2.86     76.7    97.5    68.6    43.8    4.63    1.79     3.7    1.3    3.1    6.14    2.64
 2000 350   118   115   147.4     1.0   113.2    6.41    2.85     80.6    98.2    68.9    44.4    4.62    1.78     3.7    1.3    3.9    7.34    2.74
 2000 351   119   116   150.2     1.5   113.6    6.41    2.82     84.9    98.8    68.9    44.7    4.60    1.77     3.7    1.3    4.3    8.22    2.80
 2000 352   120   117   154.6     2.0   115.0    6.36    2.81     89.3    99.7    69.5    45.5    4.59    1.77     3.7    1.3    4.4    8.71    2.88
 2000 353   121   118   158.8     2.6   116.4    6.32    2.79     93.4   100.9    70.0    46.4    4.58    1.76     3.7    1.3    4.1    9.57    2.98
 2000 354   122   119   163.6     3.3   117.6    6.30    2.78     98.3   101.2    70.5    47.2    4.57    1.76     3.7    1.3    4.8    9.66    3.06
 2000 355   123   120   167.0     4.0   118.6    6.28    2.76    101.6   102.9    70.8    47.8    4.55    1.75     3.6    1.3    3.3   11.12    3.16
 2000 356   124   121   166.4     5.0   116.9    6.26    2.74    102.8   103.2    69.8    47.1    4.52    1.73     3.6    1.3    1.2   13.31    3.24
 2000 357   125   122   171.0     6.1   117.5    6.26    2.73    107.4   104.9    69.9    47.6    4.52    1.73     3.6    1.3    4.6   13.91    3.35
 2000 358   126   123   173.0     7.4   115.8    6.26    2.71    109.3   105.3    68.9    46.9    4.49    1.71     3.6    1.3    1.9   14.23    3.43
 2000 359   127   124   176.1     8.5   115.5    6.25    2.69    114.4   106.3    68.6    46.9    4.47    1.70     3.6    1.3    5.1   15.09    3.51
 2000 360   128   125   179.3     9.9   115.4    6.28    2.68    119.1   106.5    68.4    47.0    4.45    1.69     3.6    1.3    4.7   16.37    3.63
 2000 361   129   126   180.7    11.4   114.8    6.34    2.65    123.5   107.3    68.0    46.9    4.43    1.68     3.5    1.3    4.4   18.86    3.77
 2000 362   130   127   181.0    13.3   112.8    6.33    2.63    124.6   107.7    66.8    46.0    4.40    1.66     3.5    1.2    1.1   20.14    3.88
 2000 363   131   128   182.2    15.4   110.8    6.31    2.61    128.1   108.5    65.7    45.2    4.37    1.65     3.5    1.2    3.5   21.99    3.97
 2000 364   132   129   185.3    17.7   108.9    6.29    2.59    130.6   109.6    64.6    44.3    4.34    1.63     3.5    1.2    2.5   22.10    4.06
 2000 365   133   130   187.8    20.0   108.2    6.28    2.56    136.0   110.3    64.1    44.1    4.31    1.61     3.5    1.2    5.2   24.01    4.15
 2000 366   134   131   189.6    22.6   107.3    6.28    2.54    140.9   111.2    63.4    43.8    4.28    1.60     3.4    1.2    4.9   26.52    4.25
 2001 001   135   132   192.3    25.6   106.1    6.28    2.51    146.3   111.8    62.7    43.4    4.25    1.58     3.4    1.2    5.3   28.27    4.36
 2001 002   136   133   194.9    28.8   104.9    6.28    2.49    150.8   113.1    61.9    43.0    4.22    1.57     3.4    1.2    4.6   30.13    4.46
 2001 003   137   134   197.3    32.2   103.5    6.29    2.46    156.0   113.7    61.1    42.4    4.19    1.55     3.4    1.2    5.1   31.96    4.57
 2001 004   138   135   198.6    36.0   101.2    6.33    2.44    159.5   113.9    59.7    41.4    4.15    1.53     3.3    1.2    3.6   33.76    4.69
 2001 005   139   136   200.7    40.1    99.3    6.36    2.41    164.1   115.0    58.6    40.7    4.11    1.51     3.3    1.2    4.6   35.84    4.81
 2001 006   140   137   202.5    44.4    97.3    6.39    2.38    168.4   115.9    57.5    39.8    4.07    1.49     3.3    1.2    4.2   38.12    4.92
 2001 007   141   138   203.6    49.4    95.0    6.39    2.35    169.4   117.1    56.2    38.9    4.03    1.46     3.2    1.2    1.1   39.01    5.05
 2001 008   142   139   205.4    54.4    92.7    6.39    2.31    173.3   117.6    54.8    37.9    3.98    1.44     3.2    1.2    3.9   40.62    5.14
 2001 009   143   140   208.6    59.8    90.4    6.38    2.28    177.6   118.4    53.5    36.9    3.94    1.42     3.1    1.1    4.3   41.63    5.24
 2001 010   144   141   209.7    65.0    88.3    6.37    2.25    178.2   119.4    52.3    36.0    3.89    1.39     3.1    1.1    0.6   42.23    5.33
 2001 011   145   142   212.9    70.3    86.2    6.36    2.22    183.2   120.2    51.1    35.1    3.84    1.37     3.0    1.1    4.9   43.33    5.39
 2001 012   146   143   216.6    75.6    84.5    6.36    2.18    187.7   120.9    50.1    34.4    3.80    1.35     3.0    1.1    4.5   43.94    5.45
 2001 013   147   144   220.1    81.4    82.3    6.34    2.15    191.7   121.6    48.8    33.5    3.75    1.32     3.0    1.1    4.0   44.64    5.52
 2001 014   148   145   221.9    88.1    79.9    6.35    2.11    193.8   122.4    47.5    32.5    3.70    1.30     2.9    1.1    2.2   45.70    5.62
 2001 015   149   146   224.9    95.2    77.5    6.36    2.07    197.8   123.1    46.1    31.4    3.64    1.27     2.8    1.1    3.9   46.71    5.72
 2001 016   150   147   228.2   102.5    75.2    6.36    2.03    201.3   123.7    44.7    30.4    3.58    1.24     2.7    1.1    3.5   47.29    5.81
 2001 017   151   148   229.6   109.1    72.9    6.37    1.99    203.0   124.5    43.4    29.5    3.52    1.21     2.7    1.1    1.7   48.48    5.90
 2001 018   152   149   230.8   115.0    70.6    6.37    1.94    204.3   125.0    42.1    28.5    3.46    1.18     2.6    1.1    1.3   49.19    5.98
 2001 019   153   150   232.7   121.4    68.4    6.37    1.90    205.7   126.1    40.8    27.6    3.40    1.15     2.5    1.1    1.4   49.85    6.06
 2001 020   154   151   237.2   129.5    66.3    6.37    1.86    210.3   126.9    39.6    26.7    3.34    1.12     2.4    1.1    4.6   50.37    6.13
 2001 021   155   152   242.0   137.6    64.4    6.36    1.82    215.0   127.5    38.4    25.9    3.29    1.10     2.4    1.0    4.7   50.76    6.19
 2001 022   156   153   244.0   143.2    62.4    6.36    1.78    216.3   128.5    37.3    25.1    3.23    1.07     2.3    1.0    1.3   51.07    6.26
 2001 023   157   154   248.5   151.5    60.3    6.37    1.74    219.4   130.0    36.1    24.2    3.16    1.04     2.2    1.0    3.2   51.34    6.34
 2001 024   158   155   252.7   159.3    58.4    6.39    1.70    223.2   130.7    35.0    23.5    3.10    1.01     2.1    1.0    3.8   51.62    6.41
 2001 025   159   156   256.6   166.7    56.5    6.41    1.66    226.6   131.3    33.8    22.7    3.04    0.99     2.1    1.0    3.5   51.89    6.50
 2001 026   160   157   259.6   173.2    54.5    6.42    1.61    228.9   132.2    32.7    21.9    2.97    0.96     2.0    1.0    2.3   52.08    6.58
 2001 027   161   158   259.7   176.4    52.7    6.40    1.58    228.9   132.5    31.6    21.1    2.91    0.93     1.9    1.0    0.0   52.22    6.66
 2001 028   162   159   252.7   179.5    43.8    6.39    1.47    228.9   133.0    24.5    19.3    2.84    0.91     1.8    1.0    0.0   59.76    6.94
 2001 029   163   160   248.6   183.4    36.8    6.31    1.37    228.9   134.8    18.9    17.9    2.77    0.89     1.8    1.0    0.0   65.58    6.99
 2001 030   164   161   244.3   185.7    31.4    6.24    1.26    228.9   135.0    14.7    16.7    2.69    0.86     1.7    1.0    0.0   70.07    7.05
 2001 031   165   162   241.2   188.1    27.0    6.21    1.17    228.9   135.5    11.3    15.6    2.62    0.84     1.7    1.0    0.0   73.55    7.12
 2001 032   166   163   238.8   190.1    23.6    6.22    1.09    228.9   135.7     8.8    14.8    2.56    0.82     1.6    1.0    0.0   76.23    7.59
 2001 033   167   164   236.9   191.9    20.9    6.22    1.03    228.9   135.9     6.8    14.1    2.50    0.80     1.6    1.0    0.0   78.31    8.02
 2001 034   168   165   235.5   193.3    18.8    6.22    0.97    228.9   136.0     5.3    13.5    2.44    0.78     1.5    1.0    0.0   79.92    8.42
 2001 035   169   166   234.3   194.4    17.2    6.22    0.92    228.9   136.0     4.1    13.0    2.40    0.77     1.5    1.0    0.0   81.18    8.79
 2001 036   170   167   233.3   194.7    16.1    6.22    0.89    228.9   136.0     3.3    12.8    2.39    0.77     1.5    1.0    0.0   82.16    9.14
 2001 037   171   168   232.5   194.7    15.3    6.22    0.87    228.9   136.0     2.6    12.7    2.40    0.77     1.5    1.0    0.0   82.94    9.48
 2001 038   172   169   231.9   194.7    14.7    6.22    0.85    228.9   136.0     2.1    12.6    2.40    0.77     1.5    1.0    0.0   83.56    9.80
 2001 039   173   170   231.4   194.7    14.2    6.22    0.84    228.9   136.0     1.7    12.5    2.41    0.77     1.5    1.0    0.0   84.06   10.11

*DSSAT Cropping System Model Ver. 4.0.2.000               Aug 23, 2016; 16:35:33

*RUN   3        : UYSB                    
 MODEL          : CRGRO040 - Soybean         
 EXPERIMENT     : UYSB0221 SB    late to create DSS                             
 TREATMENT  1   : UYSB                    

@YEAR DOY   DAS   DAP    CNAD    GNAD    VNAD    GN%D    VN%D     NFXC    NUPC    LNAD    SNAD    LN%D    SN%D    SHND   RN%D   NFXD   SNN0C   SNN1C
 2001 235     3     0     0.0     0.0     0.0    0.00    0.00      0.0     0.0     0.0     0.0    0.00    0.00     0.0    0.0    0.0    0.00    0.00
 2001 236     4     1     0.0     0.0     0.0    0.00    0.00      0.0     0.0     0.0     0.0    0.00    0.00     0.0    0.0    0.0    0.00    0.00
 2001 237     5     2     0.0     0.0     0.0    0.00    0.00      0.0     0.0     0.0     0.0    0.00    0.00     0.0    0.0    0.0    0.00    0.00
 2001 238     6     3     0.0     0.0     0.0    0.00    0.00      0.0     0.0     0.0     0.0    0.00    0.00     0.0    0.0    0.0    0.00    0.00
 2001 239     7     4     0.0     0.0     0.0    0.00    0.00      0.0     0.0     0.0     0.0    0.00    0.00     0.0    0.0    0.0    0.00    0.00
 2001 240     8     5     0.0     0.0     0.0    0.00    0.00      0.0     0.0     0.0     0.0    0.00    0.00     0.0    0.0    0.0    0.00    0.00
 2001 241     9     6     0.0     0.0     0.0    0.00    0.00      0.0     0.0     0.0     0.0    0.00    0.00     0.0    0.0    0.0    0.00    0.00
 2001 242    10     7     0.0     0.0     0.0    0.00    0.00      0.0     0.0     0.0     0.0    0.00    0.00     0.0    0.0    0.0    0.00    0.00
 2001 243    11     8     0.0     0.0     0.0    0.00    0.00      0.0     0.0     0.0     0.0    0.00    0.00     0.0    0.0    0.0    0.00    0.00
 2001 244    12     9     0.2     0.0     0.2    0.00    5.15      0.0     0.0     0.2     0.0    5.70    2.64     0.0    1.5    0.0    0.00    0.00
 2001 245    13    10     0.2     0.0     0.2    0.00    5.16      0.0     0.0     0.2     0.0    5.70    2.64     0.0    1.5    0.0    0.00    0.01
 2001 246    14    11     0.2     0.0     0.2    0.00    5.17      0.0     0.0     0.2     0.0    5.70    2.65     0.0    1.5    0.0    0.00    0.01
 2001 247    15    12     0.2     0.0     0.2    0.00    5.18      0.0     0.0     0.2     0.0    5.70    2.65     0.0    1.5    0.0    0.00    0.01
 2001 248    16    13     0.2     0.0     0.2    0.00    5.19      0.0     0.0     0.2     0.0    5.70    2.65     0.0    1.5    0.0    0.00    0.01
 2001 249    17    14     0.2     0.0     0.2    0.00    5.19      0.0     0.1     0.2     0.0    5.71    2.65     0.0    1.5    0.0    0.00    0.02
 2001 250    18    15     0.2     0.0     0.2    0.00    5.19      0.0     0.1     0.2     0.0    5.71    2.65     0.0    1.5    0.0    0.00    0.02
 2001 251    19    16     0.3     0.0     0.3    0.00    5.17      0.0     0.1     0.2     0.0    5.71    2.65     0.0    1.5    0.0    0.00    0.02
 2001 252    20    17     0.3     0.0     0.3    0.00    5.16      0.0     0.1     0.2     0.0    5.71    2.65     0.0    1.5    0.0    0.00    0.02
 2001 253    21    18     0.3     0.0     0.3    0.00    5.14      0.0     0.1     0.3     0.0    5.71    2.65     0.0    1.5    0.0    0.00    0.02
 2001 254    22    19     0.3     0.0     0.3    0.00    5.12      0.1     0.1     0.3     0.0    5.71    2.65     0.0    1.5    0.0    0.00    0.02
 2001 255    23    20     0.3     0.0     0.3    0.00    5.09      0.1     0.2     0.3     0.0    5.71    2.65     0.0    1.5    0.0    0.00    0.02
 2001 256    24    21     0.3     0.0     0.3    0.00    5.06      0.1     0.2     0.3     0.0    5.71    2.65     0.0    1.5    0.0    0.00    0.02
 2001 257    25    22     0.3     0.0     0.3    0.00    5.05      0.1     0.2     0.3     0.0    5.71    2.65     0.0    1.5    0.0    0.00    0.02
 2001 258    26    23     0.3     0.0     0.3    0.00    5.03      0.1     0.2     0.3     0.0    5.71    2.65     0.0    1.5    0.0    0.00    0.02
 2001 259    27    24     0.4     0.0     0.4    0.00    5.02      0.1     0.2     0.3     0.0    5.71    2.65     0.0    1.5    0.0    0.00    0.03
 2001 260    28    25     0.4     0.0     0.4    0.00    5.00      0.1     0.3     0.3     0.0    5.71    2.65     0.0    1.5    0.0    0.00    0.03
 2001 261    29    26     0.4     0.0     0.4    0.00    4.96      0.1     0.3     0.3     0.1    5.71    2.65     0.0    1.5    0.0    0.00    0.03
 2001 262    30    27     0.4     0.0     0.4    0.00    4.93      0.1     0.3     0.4     0.1    5.72    2.65     0.0    1.5    0.0    0.00    0.03
 2001 263    31    28     0.4     0.0     0.4    0.00    4.88      0.1     0.4     0.4     0.1    5.72    2.65     0.0    1.5    0.0    0.00    0.03
 2001 264    32    29     0.4     0.0     0.4    0.00    4.85      0.1     0.4     0.4     0.1    5.72    2.66     0.0    1.5    0.0    0.00    0.03
 2001 265    33    30     0.5     0.0     0.5    0.00    4.88      0.1     0.5     0.4     0.1    5.72    2.66     0.0    1.5    0.0    0.00    0.03
 2001 266    34    31     0.5     0.0     0.5    0.00    4.89      0.1     0.5     0.5     0.1    5.72    2.66     0.0    1.5    0.0    0.00    0.03
 2001 267    35    32     0.6     0.0     0.6    0.00    4.89      0.1     0.6     0.5     0.1    5.72    2.66     0.0    1.5    0.0    0.00    0.03
 2001 268    36    33     0.6     0.0     0.6    0.00    4.91      0.1     0.6     0.5     0.1    5.72    2.66     0.0    1.5    0.0    0.00    0.04
 2001 269    37    34     0.7     0.0     0.7    0.00    4.92      0.1     0.7     0.6     0.1    5.72    2.66     0.0    1.5    0.0    0.00    0.04
 2001 270    38    35     0.7     0.0     0.7    0.00    4.93      0.1     0.7     0.6     0.1    5.72    2.66     0.0    1.5    0.0    0.00    0.04
 2001 271    39    36     0.7     0.0     0.7    0.00    4.94      0.1     0.7     0.6     0.1    5.72    2.66     0.0    1.5    0.0    0.00    0.04
 2001 272    40    37     0.8     0.0     0.8    0.00    4.93      0.1     0.8     0.7     0.1    5.72    2.66     0.0    1.5    0.0    0.00    0.04
 2001 273    41    38     0.8     0.0     0.8    0.00    4.93      0.1     0.9     0.7     0.1    5.72    2.66     0.0    1.5    0.0    0.00    0.05
 2001 274    42    39     0.9     0.0     0.9    0.00    4.90      0.1     0.9     0.8     0.1    5.68    2.64     0.0    1.5    0.0    0.00    0.05
 2001 275    43    40     1.0     0.0     1.0    0.00    4.90      0.1     1.0     0.8     0.1    5.69    2.65     0.0    1.5    0.0    0.00    0.05
 2001 276    44    41     1.0     0.0     1.0    0.00    4.89      0.1     1.1     0.9     0.1    5.70    2.65     0.0    1.5    0.0    0.00    0.05
 2001 277    45    42     1.1     0.0     1.1    0.00    4.83      0.1     1.2     0.9     0.2    5.70    2.65     0.0    1.5    0.0    0.00    0.05
 2001 278    46    43     1.2     0.0     1.2    0.00    4.82      0.1     1.4     1.0     0.2    5.70    2.65     0.0    1.5    0.0    0.00    0.05
 2001 279    47    44     1.4     0.0     1.4    0.00    4.80      0.1     1.6     1.2     0.2    5.70    2.65     0.0    1.5    0.0    0.00    0.05
 2001 280    48    45     1.5     0.0     1.5    0.00    4.80      0.1     1.7     1.2     0.2    5.70    2.65     0.0    1.5    0.0    0.00    0.06
 2001 281    49    46     1.6     0.0     1.6    0.00    4.78      0.1     1.8     1.3     0.3    5.71    2.65     0.0    1.5    0.0    0.00    0.06
 2001 282    50    47     1.7     0.0     1.7    0.00    4.76      0.1     2.0     1.4     0.3    5.71    2.65     0.0    1.5    0.0    0.00    0.06
 2001 283    51    48     2.0     0.0     2.0    0.00    4.67      0.1     2.3     1.6     0.4    5.71    2.65     0.0    1.5    0.0    0.00    0.06
 2001 284    52    49     2.2     0.0     2.2    0.00    4.60      0.1     2.6     1.7     0.5    5.71    2.65     0.0    1.5    0.0    0.00    0.07
 2001 285    53    50     2.4     0.0     2.4    0.00    4.58      0.1     2.8     1.9     0.5    5.71    2.65     0.0    1.5    0.0    0.00    0.07
 2001 286    54    51     2.7     0.0     2.7    0.00    4.53      0.1     3.1     2.1     0.6    5.71    2.65     0.0    1.5    0.0    0.00    0.07
 2001 287    55    52     3.0     0.0     3.0    0.00    4.46      0.1     3.5     2.2     0.7    5.71    2.65     0.0    1.5    0.0    0.00    0.07
 2001 288    56    53     3.1     0.0     3.1    0.00    4.44      0.1     3.7     2.3     0.8    5.71    2.65     0.0    1.5    0.0    0.00    0.08
 2001 289    57    54     3.3     0.0     3.3    0.00    4.40      0.2     4.0     2.5     0.9    5.72    2.66     0.0    1.5    0.0    0.00    0.08
 2001 290    58    55     3.7     0.0     3.7    0.00    4.41      0.2     4.5     2.8     1.0    5.72    2.66     0.0    1.5    0.0    0.00    0.09
 2001 291    59    56     4.2     0.0     4.2    0.00    4.41      0.2     5.0     3.1     1.1    5.72    2.66     0.0    1.5    0.0    0.00    0.10
 2001 292    60    57     4.9     0.0     4.9    0.00    4.41      0.2     5.8     3.6     1.3    5.72    2.66     0.0    1.5    0.0    0.00    0.10
 2001 293    61    58     5.7     0.0     5.7    0.00    4.40      0.2     6.7     4.2     1.5    5.72    2.66     0.0    1.5    0.0    0.00    0.11
 2001 294    62    59     6.4     0.0     6.4    0.00    4.40      0.2     7.5     4.7     1.7    5.72    2.66     0.0    1.5    0.0    0.00    0.11
 2001 295    63    60     7.1     0.0     7.1    0.00    4.39      0.2     8.4     5.3     1.9    5.71    2.66     0.0    1.5    0.0    0.00    0.12
 2001 296    64    61     8.0     0.0     8.0    0.00    4.39      0.3     9.4     5.9     2.1    5.71    2.66     0.0    1.5    0.0    0.00    0.12
 2001 297    65    62     9.3     0.0     9.3    0.00    4.38      0.3    10.8     6.8     2.5    5.71    2.66     0.0    1.5    0.0    0.00    0.13
 2001 298    66    63    10.6     0.0    10.6    0.00    4.37      0.3    12.4     7.8     2.8    5.72    2.66     0.0    1.5    0.0    0.00    0.14
 2001 299    67    64    11.4     0.0    11.4    0.00    4.37      0.3    13.3     8.3     3.1    5.72    2.66     0.0    1.5    0.0    0.00    0.16
 2001 300    68    65    12.0     0.0    12.0    0.00    4.32      0.3    14.0     8.7     3.2    5.67    2.63     0.0    1.5    0.0    0.01    0.18
 2001 301    69    66    12.7     0.0    12.7    0.00    4.28      0.5    14.7     9.2     3.5    5.64    2.60     0.0    1.5    0.1    0.02    0.20
 2001 302    70    67    13.4     0.0    13.4    0.00    4.24      0.7    15.4     9.7     3.7    5.62    2.58     0.0    1.5    0.2    0.04    0.22
 2001 303    71    68    15.3     0.0    15.3    0.00    4.21      0.7    17.5    11.0     4.3    5.61    2.57     0.0    1.5    0.0    0.05    0.23
 2001 304    72    69    17.4     0.0    17.4    0.00    4.24      0.7    20.3    12.5     5.0    5.66    2.60     0.0    1.5    0.0    0.05    0.24
 2001 305    73    70    19.8     0.0    19.8    0.00    4.23      0.8    23.1    14.1     5.7    5.68    2.60     0.0    1.5    0.0    0.05    0.26
 2001 306    74    71    22.0     0.0    22.0    0.00    4.22      0.8    25.7    15.5     6.4    5.68    2.60     0.0    1.5    0.0    0.05    0.27
 2001 307    75    72    24.4     0.0    24.4    0.00    4.20      0.9    28.7    17.2     7.2    5.69    2.60     0.0    1.5    0.0    0.05    0.28
 2001 308    76    73    27.2     0.0    27.2    0.00    4.18      0.9    32.1    19.0     8.2    5.69    2.59     0.0    1.5    0.0    0.05    0.30
 2001 309    77    74    30.4     0.0    30.4    0.00    4.16      1.0    35.8    21.1     9.3    5.69    2.58     0.0    1.5    0.0    0.05    0.32
 2001 310    78    75    32.4     0.0    32.4    0.00    4.17      1.0    38.4    22.4    10.0    5.72    2.59     0.0    1.5    0.0    0.09    0.35
 2001 311    79    76    33.5     0.0    33.5    0.00    4.18      1.0    39.9    23.2    10.4    5.74    2.60     0.0    1.5    0.0    0.12    0.40
 2001 312    80    77    36.0     0.0    36.0    0.00    4.17      1.1    43.1    24.7    11.3    5.75    2.60     0.0    1.5    0.0    0.16    0.43
 2001 313    81    78    37.7     0.0    37.7    0.00    3.99      1.9    44.4    25.9    11.8    5.61    2.45     0.0    1.5    0.7    0.22    0.45
 2001 314    82    79    39.2     0.0    39.1    0.00    3.93      2.8    45.3    26.8    12.4    5.54    2.40     4.0    1.5    0.8    0.26    0.50
 2001 315    83    80    41.8     0.0    41.7    0.00    3.76      3.8    47.5    28.5    13.2    5.40    2.28     4.0    1.4    0.9    0.30    0.53
 2001 316    84    81    45.2     0.0    44.9    0.00    3.69      5.0    50.3    30.5    14.4    5.34    2.24     4.0    1.4    1.0    0.34    0.56
 2001 317    85    82    47.9     0.0    47.3    0.00    3.73      5.0    53.3    32.0    15.3    5.39    2.28     4.0    1.4    0.0    0.34    0.69
 2001 318    86    83    51.3     0.0    50.2    0.00    3.70      5.9    56.3    33.7    16.5    5.37    2.26     4.0    1.4    0.8    0.38    0.73
 2001 319    87    84    54.4     0.0    52.8    0.00    3.58      7.2    58.7    35.3    17.6    5.24    2.18     4.0    1.4    1.1    0.43    0.77
 2001 320    88    85    56.2     0.0    54.0    0.00    3.46      8.7    59.5    36.1    18.0    5.14    2.09     3.9    1.4    1.3    0.46    0.80
 2001 321    89    86    58.3     0.0    55.6    0.00    3.34     10.5    60.6    37.0    18.5    5.04    1.99     3.9    1.3    1.5    0.49    0.83
 2001 322    90    87    60.6     0.0    57.1    0.00    3.21     12.5    61.6    38.0    19.1    4.93    1.89     3.9    1.3    1.7    0.54    0.88
 2001 323    91    88    64.2     0.0    59.9    0.00    3.19     14.7    63.6    39.6    20.3    4.92    1.89     3.9    1.3    2.0    0.59    0.93
 2001 324    92    89    66.4     0.0    61.2    0.00    3.08     17.2    64.0    40.4    20.8    4.82    1.80     3.8    1.3    2.2    0.64    1.00
 2001 325    93    90    68.8     0.0    62.4    0.00    3.06     19.0    65.0    41.1    21.3    4.80    1.80     3.8    1.3    1.8    0.70    1.06
 2001 326    94    91    71.6     0.0    64.0    0.00    3.00     22.0    65.5    42.0    22.0    4.75    1.76     3.8    1.3    2.5    0.76    1.13
 2001 327    95    92    75.6     0.0    66.6    0.00    2.99     25.0    67.0    43.4    23.1    4.74    1.77     3.8    1.3    3.0    0.82    1.21
 2001 328    96    93    77.1     0.0    66.4    0.00    2.97     26.1    67.4    43.3    23.1    4.72    1.75     3.8    1.3    1.1    0.86    1.29
 2001 329    97    94    79.3     0.0    67.2    0.00    2.96     27.9    68.0    43.7    23.5    4.71    1.75     3.8    1.3    1.8    0.89    1.33
 2001 330    98    95    80.7     0.0    66.8    0.00    2.93     28.9    68.5    43.4    23.3    4.68    1.73     3.8    1.3    0.9    0.94    1.39
 2001 331    99    96    83.8     0.0    67.9    0.00    2.86     32.3    69.0    44.1    23.8    4.61    1.67     3.8    1.2    2.9    0.99    1.45
 2001 332   100    97    87.3     0.0    69.6    0.00    2.82     35.9    69.6    45.0    24.7    4.57    1.66     3.7    1.2    3.2    1.03    1.50
 2001 333   101    98    91.0     0.0    71.4    0.00    2.81     39.5    70.2    45.9    25.6    4.56    1.66     3.7    1.2    3.4    1.07    1.55
 2001 334   102    99    91.8     0.0    70.6    0.00    2.78     40.1    70.6    45.3    25.2    4.53    1.64     3.7    1.2    0.5    1.32    1.58
 2001 335   103   100    95.7     0.0    72.6    6.21    2.76     44.3    71.1    46.3    26.3    4.52    1.64     3.7    1.2    3.9    1.38    1.64
 2001 336   104   101    99.0     0.1    74.5    6.20    2.74     47.7    72.1    47.3    27.2    4.50    1.63     3.7    1.2    3.2    2.05    1.69
 2001 337   105   102   100.1     0.2    73.9    6.24    2.72     48.9    72.6    46.9    27.1    4.47    1.62     3.7    1.2    1.2    2.61    1.74
 2001 338   106   103   101.9     0.3    73.5    6.23    2.70     50.0    73.4    46.6    27.0    4.45    1.61     3.7    1.2    1.1    2.66    1.80
 2001 339   107   104   103.5     0.5    73.8    6.21    2.68     51.6    74.4    46.6    27.2    4.43    1.60     3.7    1.2    1.6    3.63    1.86
 2001 340   108   105   106.0     0.7    75.0    6.20    2.67     55.0    75.1    47.1    27.9    4.42    1.60     3.6    1.2    3.3    4.83    1.92
 2001 341   109   106   108.9     1.1    76.6    6.20    2.66     58.9    75.7    47.8    28.8    4.42    1.61     3.6    1.2    3.8    6.17    1.99
 2001 342   110   107   111.2     1.5    77.4    6.27    2.66     62.0    76.2    48.1    29.3    4.41    1.61     3.6    1.2    3.1    7.23    2.04
 2001 343   111   108   114.3     1.9    78.7    6.35    2.65     64.9    76.8    48.7    30.0    4.41    1.61     3.6    1.2    2.8    7.29    2.07
 2001 344   112   109   117.8     2.5    80.1    6.32    2.64     69.0    77.0    49.3    30.8    4.40    1.61     3.6    1.2    4.1    7.88    2.13
 2001 345   113   110   120.9     3.1    81.0    6.31    2.63     72.7    77.2    49.6    31.4    4.39    1.61     3.6    1.2    3.6    8.43    2.18
 2001 346   114   111   123.1     3.7    81.1    6.30    2.61     74.0    79.2    49.5    31.6    4.37    1.60     3.6    1.2    1.3    9.32    2.26
 2001 347   115   112   125.0     4.6    81.6    6.30    2.60     77.1    79.7    49.6    31.9    4.36    1.60     3.6    1.2    3.1   10.99    2.35
 2001 348   116   113   127.2     5.5    82.3    6.30    2.60     80.6    80.4    49.8    32.5    4.35    1.60     3.5    1.2    3.5   12.73    2.43
 2001 349   117   114   129.7     6.6    82.5    6.28    2.58     85.4    80.9    49.8    32.7    4.33    1.60     3.5    1.2    4.8   14.06    2.51
 2001 350   118   115   131.1     7.8    82.6    6.27    2.56     88.9    82.2    49.7    32.9    4.32    1.59     3.5    1.2    3.5   16.28    2.58
 2001 351   119   116   135.0     9.1    83.0    6.25    2.54     94.1    82.7    49.8    33.2    4.30    1.58     3.5    1.2    5.2   16.35    2.65
 2001 352   120   117   136.9    10.4    84.1    6.25    2.54     98.2    83.6    50.2    33.9    4.29    1.58     3.5    1.2    4.1   19.15    2.72
 2001 353   121   118   139.6    12.0    83.2    6.25    2.52    101.7    83.8    49.6    33.6    4.27    1.57     3.5    1.2    3.6   19.61    2.81
 2001 354   122   119   141.3    13.7    81.9    6.28    2.50    104.1    84.7    48.9    33.1    4.24    1.56     3.5    1.2    2.4   20.72    2.90
 2001 355   123   120   141.6    15.5    80.6    6.27    2.48    105.2    85.2    48.1    32.5    4.22    1.54     3.4    1.2    1.1   21.87    2.96
 2001 356   124   121   144.0    17.3    80.1    6.26    2.46    110.6    85.5    47.7    32.4    4.19    1.53     3.4    1.2    5.2   23.21    3.03
 2001 357   125   122   147.0    19.1    80.7    6.25    2.45    113.5    87.1    47.9    32.8    4.18    1.53     3.4    1.2    2.9   24.58    3.09
 2001 358   126   123   149.5    21.1    80.4    6.25    2.43    118.1    88.0    47.6    32.8    4.16    1.52     3.4    1.2    4.6   26.00    3.16
 2001 359   127   124   152.4    23.4    80.0    6.24    2.41    123.3    88.3    47.3    32.7    4.13    1.51     3.4    1.2    5.2   27.18    3.23
 2001 360   128   125   155.5    25.7    79.5    6.24    2.39    127.9    88.9    46.9    32.6    4.11    1.49     3.3    1.2    4.6   27.99    3.31
 2001 361   129   126   158.4    28.3    78.7    6.26    2.37    131.7    90.1    46.4    32.3    4.08    1.48     3.3    1.2    3.8   28.84    3.40
 2001 362   130   127   160.4    30.9    77.9    6.27    2.35    136.1    90.5    45.8    32.0    4.05    1.47     3.3    1.2    4.4   30.30    3.49
 2001 363   131   128   162.2    33.8    76.6    6.28    2.32    140.3    91.0    45.1    31.5    4.01    1.45     3.3    1.2    4.1   31.97    3.57
 2001 364   132   129   163.3    36.9    75.3    6.30    2.30    143.3    92.3    44.3    31.0    3.98    1.43     3.2    1.2    3.1   34.24    3.66
 2001 365   133   130   164.9    40.3    73.6    6.31    2.27    146.1    93.0    43.3    30.2    3.94    1.41     3.2    1.2    2.8   35.60    3.75
 2002 001   134   131   167.9    43.8    72.3    6.31    2.25    150.7    93.7    42.6    29.7    3.90    1.40     3.2    1.1    4.5   36.39    3.82
 2002 002   135   132   170.9    47.6    70.9    6.31    2.22    154.3    94.7    41.8    29.1    3.87    1.38     3.1    1.1    3.6   37.12    3.90
 2002 003   136   133   173.5    51.5    69.7    6.30    2.19    158.2    95.7    41.0    28.7    3.83    1.36     3.1    1.1    4.0   38.37    3.98
 2002 004   137   134   175.8    55.5    68.1    6.29    2.16    162.4    96.0    40.1    28.0    3.79    1.34     3.1    1.1    4.1   39.66    4.05
 2002 005   138   135   176.1    60.0    66.5    6.29    2.13    163.0    96.7    39.2    27.3    3.75    1.32     3.0    1.1    0.7   40.83    4.11
 2002 006   139   136   178.4    64.7    64.8    6.29    2.10    165.4    98.0    38.3    26.6    3.70    1.30     3.0    1.1    2.3   41.45    4.18
 2002 007   140   137   181.4    69.2    63.5    6.28    2.07    169.2    98.8    37.5    26.0    3.66    1.28     2.9    1.1    3.9   42.35    4.23
 2002 008   141   138   184.4    73.7    62.4    6.27    2.05    173.5    99.4    36.8    25.6    3.62    1.26     2.9    1.1    4.2   43.25    4.29
 2002 009   142   139   187.5    78.9    60.7    6.27    2.01    177.3    99.9    35.9    24.9    3.57    1.24     2.8    1.1    3.8   43.94    4.36
 2002 010   143   140   190.6    84.2    59.0    6.27    1.98    180.5   101.1    34.9    24.2    3.52    1.21     2.8    1.1    3.2   44.67    4.42
 2002 011   144   141   193.0    89.9    57.3    6.28    1.94    184.1   101.2    33.9    23.4    3.47    1.19     2.7    1.1    3.6   45.77    4.50
 2002 012   145   142   196.1    95.7    55.6    6.29    1.91    187.7   101.8    32.9    22.7    3.42    1.16     2.7    1.1    3.6   46.37    4.57
 2002 013   146   143   199.0   101.7    53.9    6.31    1.87    190.3   102.9    31.9    21.9    3.36    1.14     2.6    1.1    2.7   46.95    4.65
 2002 014   147   144   200.4   106.6    52.4    6.31    1.83    191.4   103.8    31.1    21.3    3.31    1.11     2.5    1.0    1.1   47.49    4.70
 2002 015   148   145   203.6   112.2    51.0    6.30    1.80    194.9   104.4    30.3    20.7    3.26    1.09     2.5    1.0    3.5   48.00    4.74
 2002 016   149   146   206.8   118.0    49.7    6.30    1.77    197.9   105.4    29.5    20.2    3.21    1.07     2.4    1.0    3.0   48.51    4.78
 2002 017   150   147   210.1   124.2    48.3    6.30    1.73    201.4   105.8    28.7    19.6    3.16    1.04     2.4    1.0    3.5   48.92    4.83
 2002 018   151   148   213.9   130.6    46.9    6.29    1.70    204.8   106.5    27.9    19.0    3.11    1.02     2.3    1.0    3.3   49.00    4.88
 2002 019   152   149   217.3   137.0    45.4    6.29    1.66    207.9   107.4    27.0    18.4    3.05    1.00     2.2    1.0    3.1   49.41    4.93
 2002 020   153   150   217.8   140.7    44.0    6.21    1.62    207.9   108.1    26.2    17.8    2.98    0.96     2.1    1.0    0.0   49.79    5.00
 2002 021   154   151   211.6   144.1    36.3    6.13    1.50    207.9   108.8    20.2    16.2    2.90    0.94     2.1    1.0    0.0   56.51    5.07
 2002 022   155   152   207.1   146.9    30.5    6.06    1.39    207.9   109.2    15.6    14.9    2.82    0.91     2.0    1.0    0.0   61.47    5.13
 2002 023   156   153   204.2   150.0    25.9    6.04    1.29    207.9   110.2    12.0    13.9    2.75    0.89     1.9    1.0    0.0   65.28    5.19
 2002 024   157   154   201.4   151.9    22.3    6.04    1.21    207.9   110.3     9.3    13.0    2.68    0.87     1.8    1.0    0.0   68.21    5.71
 2002 025   158   155   199.7   154.2    19.5    6.05    1.13    207.9   110.9     7.2    12.3    2.62    0.85     1.8    1.0    0.0   70.47    6.13
 2002 026   159   156   198.0   155.1    17.5    6.05    1.07    207.9   110.9     5.7    11.8    2.59    0.84     1.7    1.0    0.0   72.20    6.54
 2002 027   160   157   196.7   155.8    15.9    6.05    1.02    207.9   110.9     4.5    11.5    2.56    0.83     1.7    1.0    0.0   73.55    6.92
 2002 028   161   158   195.6   156.6    14.6    6.05    0.98    207.9   110.9     3.5    11.1    2.53    0.82     1.7    1.0    0.0   74.60    7.28
 2002 029   162   159   194.8   156.8    13.7    6.05    0.95    207.9   110.9     2.8    11.0    2.53    0.82     1.7    1.0    0.0   75.44    7.62
 2002 030   163   160   194.1   156.8    13.1    6.05    0.93    207.9   110.9     2.2    10.8    2.53    0.82     1.7    1.0    0.0   76.10    7.98
 2002 031   164   161   193.6   156.8    12.6    6.05    0.91    207.9   110.9     1.8    10.8    2.54    0.82     1.7    1.0    0.0   76.63    8.28
 2002 032   165   162   193.2   156.8    12.1    6.05    0.90    207.9   110.9     1.4    10.7    2.55    0.82     1.7    1.0    0.0   77.06    8.55

*DSSAT Cropping System Model Ver. 4.0.2.000               Aug 23, 2016; 16:35:33

*RUN   4        : UYSB                    
 MODEL          : CRGRO040 - Soybean         
 EXPERIMENT     : UYSB0221 SB    late to create DSS                             
 TREATMENT  1   : UYSB                    

@YEAR DOY   DAS   DAP    CNAD    GNAD    VNAD    GN%D    VN%D     NFXC    NUPC    LNAD    SNAD    LN%D    SN%D    SHND   RN%D   NFXD   SNN0C   SNN1C
 2002 235     3     0     0.0     0.0     0.0    0.00    0.00      0.0     0.0     0.0     0.0    0.00    0.00     0.0    0.0    0.0    0.00    0.00
 2002 236     4     1     0.0     0.0     0.0    0.00    0.00      0.0     0.0     0.0     0.0    0.00    0.00     0.0    0.0    0.0    0.00    0.00
 2002 237     5     2     0.0     0.0     0.0    0.00    0.00      0.0     0.0     0.0     0.0    0.00    0.00     0.0    0.0    0.0    0.00    0.00
 2002 238     6     3     0.0     0.0     0.0    0.00    0.00      0.0     0.0     0.0     0.0    0.00    0.00     0.0    0.0    0.0    0.00    0.00
 2002 239     7     4     0.0     0.0     0.0    0.00    0.00      0.0     0.0     0.0     0.0    0.00    0.00     0.0    0.0    0.0    0.00    0.00
 2002 240     8     5     0.0     0.0     0.0    0.00    0.00      0.0     0.0     0.0     0.0    0.00    0.00     0.0    0.0    0.0    0.00    0.00
 2002 241     9     6     0.0     0.0     0.0    0.00    0.00      0.0     0.0     0.0     0.0    0.00    0.00     0.0    0.0    0.0    0.00    0.00
 2002 242    10     7     0.2     0.0     0.2    0.00    5.15      0.0     0.0     0.2     0.0    5.70    2.64     0.0    1.5    0.0    0.00    0.00
 2002 243    11     8     0.2     0.0     0.2    0.00    5.14      0.0     0.0     0.2     0.0    5.70    2.64     0.0    1.5    0.0    0.00    0.01
 2002 244    12     9     0.2     0.0     0.2    0.00    5.14      0.0     0.0     0.2     0.0    5.70    2.64     0.0    1.5    0.0    0.00    0.01
 2002 245    13    10     0.2     0.0     0.2    0.00    5.14      0.0     0.0     0.2     0.0    5.70    2.64     0.0    1.5    0.0    0.00    0.01
 2002 246    14    11     0.2     0.0     0.2    0.00    5.13      0.0     0.0     0.2     0.0    5.70    2.64     0.0    1.5    0.0    0.00    0.01
 2002 247    15    12     0.2     0.0     0.2    0.00    5.12      0.0     0.1     0.2     0.0    5.70    2.64     0.0    1.5    0.0    0.00    0.01
 2002 248    16    13     0.2     0.0     0.2    0.00    5.11      0.0     0.1     0.2     0.0    5.70    2.64     0.0    1.5    0.0    0.00    0.02
 2002 249    17    14     0.2     0.0     0.2    0.00    5.12      0.0     0.1     0.2     0.0    5.70    2.65     0.0    1.5    0.0    0.00    0.02
 2002 250    18    15     0.3     0.0     0.3    0.00    5.11      0.0     0.1     0.2     0.0    5.70    2.65     0.0    1.5    0.0    0.00    0.02
 2002 251    19    16     0.3     0.0     0.3    0.00    5.10      0.1     0.1     0.2     0.0    5.70    2.65     0.0    1.5    0.0    0.00    0.02
 2002 252    20    17     0.3     0.0     0.3    0.00    5.09      0.1     0.1     0.3     0.0    5.70    2.65     0.0    1.5    0.0    0.00    0.02
 2002 253    21    18     0.3     0.0     0.3    0.00    5.09      0.1     0.1     0.3     0.0    5.71    2.65     0.0    1.5    0.0    0.00    0.02
 2002 254    22    19     0.3     0.0     0.3    0.00    5.09      0.1     0.2     0.3     0.0    5.71    2.65     0.0    1.5    0.0    0.00    0.02
 2002 255    23    20     0.3     0.0     0.3    0.00    5.08      0.1     0.2     0.3     0.0    5.71    2.65     0.0    1.5    0.0    0.00    0.03
 2002 256    24    21     0.3     0.0     0.3    0.00    5.05      0.1     0.2     0.3     0.0    5.71    2.65     0.0    1.5    0.0    0.00    0.03
[...]
 2013 265    33    30     0.6     0.0     0.6    0.00    5.02      0.1     0.6     0.5     0.1    5.72    2.66     0.0    1.5    0.0    0.00    0.04
 2013 266    34    31     0.6     0.0     0.6    0.00    5.02      0.1     0.6     0.6     0.1    5.72    2.66     0.0    1.5    0.0    0.00    0.04
 2013 267    35    32     0.7     0.0     0.7    0.00    5.02      0.1     0.6     0.6     0.1    5.72    2.66     0.0    1.5    0.0    0.00    0.04
 2013 268    36    33     0.7     0.0     0.7    0.00    5.01      0.1     0.7     0.6     0.1    5.72    2.66     0.0    1.5    0.0    0.00    0.04
 2013 269    37    34     0.7     0.0     0.7    0.00    4.99      0.1     0.7     0.6     0.1    5.72    2.66     0.0    1.5    0.0    0.00    0.04
 2013 270    38    35     0.8     0.0     0.8    0.00    4.97      0.1     0.8     0.7     0.1    5.72    2.66     0.0    1.5    0.0    0.00    0.04
 2013 271    39    36     0.9     0.0     0.9    0.00    4.95      0.1     0.9     0.7     0.1    5.72    2.66     0.0    1.5    0.0    0.00    0.04
 2013 272    40    37     0.9     0.0     0.9    0.00    4.96      0.1     1.0     0.8     0.1    5.72    2.66     0.0    1.5    0.0    0.00    0.04
 2013 273    41    38     1.0     0.0     1.0    0.00    4.96      0.1     1.1     0.9     0.1    5.72    2.66     0.0    1.5    0.0    0.00    0.04
 2013 274    42    39     1.1     0.0     1.1    0.00    4.94      0.1     1.2     0.9     0.1    5.72    2.66     0.0    1.5    0.0    0.00    0.04
 2013 275    43    40     1.2     0.0     1.2    0.00    4.92      0.1     1.3     1.0     0.2    5.72    2.66     0.0    1.5    0.0    0.00    0.04
 2013 276    44    41     1.3     0.0     1.3    0.00    4.89      0.1     1.4     1.1     0.2    5.72    2.66     0.0    1.5    0.0    0.00    0.05
 2013 277    45    42     1.3     0.0     1.3    0.00    4.88      0.1     1.5     1.1     0.2    5.72    2.66     0.0    1.5    0.0    0.00    0.05
 2013 278    46    43     1.4     0.0     1.4    0.00    4.86      0.1     1.6     1.2     0.2    5.72    2.66     0.0    1.5    0.0    0.00    0.05
 2013 279    47    44     1.5     0.0     1.5    0.00    4.82      0.1     1.7     1.3     0.2    5.72    2.66     0.0    1.5    0.0    0.00    0.05
 2013 280    48    45     1.6     0.0     1.6    0.00    4.76      0.1     1.9     1.4     0.3    5.72    2.66     0.0    1.5    0.0    0.00    0.05
 2013 281    49    46     1.8     0.0     1.8    0.00    4.73      0.1     2.1     1.5     0.3    5.72    2.66     0.0    1.5    0.0    0.00    0.05
 2013 282    50    47     2.0     0.0     2.0    0.00    4.70      0.1     2.3     1.6     0.4    5.72    2.66     0.0    1.5    0.0    0.00    0.05
 2013 283    51    48     2.1     0.0     2.1    0.00    4.68      0.1     2.5     1.7     0.4    5.72    2.66     0.0    1.5    0.0    0.00    0.06
 2013 284    52    49     2.3     0.0     2.3    0.00    4.64      0.1     2.7     1.8     0.5    5.72    2.66     0.0    1.5    0.0    0.00    0.06
 2013 285    53    50     2.4     0.0     2.4    0.00    4.63      0.1     2.8     1.9     0.5    5.72    2.66     0.0    1.5    0.0    0.00    0.07
 2013 286    54    51     2.5     0.0     2.5    0.00    4.60      0.1     3.0     2.0     0.5    5.73    2.66     0.0    1.5    0.0    0.00    0.07
 2013 287    55    52     2.8     0.0     2.8    0.00    4.54      0.1     3.4     2.2     0.6    5.73    2.66     0.0    1.5    0.0    0.00    0.08
 2013 288    56    53     3.2     0.0     3.2    0.00    4.47      0.2     3.8     2.4     0.8    5.73    2.66     0.0    1.5    0.0    0.00    0.08
 2013 289    57    54     3.3     0.0     3.3    0.00    4.45      0.2     4.1     2.5     0.8    5.73    2.66     0.0    1.5    0.0    0.00    0.08
 2013 290    58    55     3.7     0.0     3.7    0.00    4.38      0.2     4.5     2.7     1.0    5.73    2.66     0.0    1.5    0.0    0.00    0.09
 2013 291    59    56     4.0     0.0     4.0    0.00    4.30      0.2     5.0     2.9     1.2    5.73    2.66     0.0    1.5    0.0    0.00    0.09
 2013 292    60    57     4.6     0.0     4.6    0.00    4.32      0.2     5.6     3.3     1.3    5.73    2.66     0.0    1.5    0.0    0.00    0.10
 2013 293    61    58     5.1     0.0     5.1    0.00    4.33      0.2     6.2     3.7     1.4    5.73    2.66     0.0    1.5    0.0    0.00    0.11
 2013 294    62    59     5.8     0.0     5.8    0.00    4.34      0.2     7.0     4.2     1.6    5.73    2.66     0.0    1.5    0.0    0.00    0.12
 2013 295    63    60     6.4     0.0     6.4    0.00    4.34      0.2     7.7     4.6     1.8    5.72    2.66     0.0    1.5    0.0    0.00    0.12
 2013 296    64    61     7.2     0.0     7.2    0.00    4.34      0.3     8.6     5.2     2.0    5.72    2.66     0.0    1.5    0.0    0.00    0.13
 2013 297    65    62     8.0     0.0     8.0    0.00    4.35      0.3     9.6     5.8     2.2    5.72    2.66     0.0    1.5    0.0    0.00    0.14
 2013 298    66    63     8.7     0.0     8.7    0.00    4.34      0.3    10.3     6.3     2.4    5.72    2.66     0.0    1.5    0.0    0.00    0.15
 2013 299    67    64     9.4     0.0     9.4    0.00    4.34      0.3    11.2     6.8     2.6    5.72    2.66     0.0    1.5    0.0    0.00    0.16
 2013 300    68    65    10.7     0.0    10.7    0.00    4.34      0.3    12.6     7.7     3.0    5.72    2.66     0.0    1.5    0.0    0.00    0.17
 2013 301    69    66    11.8     0.0    11.8    0.00    4.33      0.3    13.9     8.5     3.3    5.72    2.66     0.0    1.5    0.0    0.00    0.17
 2013 302    70    67    13.3     0.0    13.3    0.00    4.33      0.4    15.7     9.6     3.7    5.72    2.66     0.0    1.5    0.0    0.00    0.18
 2013 303    71    68    15.0     0.0    15.0    0.00    4.32      0.4    17.6    10.8     4.2    5.72    2.66     0.0    1.5    0.0    0.00    0.20
 2013 304    72    69    15.9     0.0    15.9    0.00    4.32      0.4    18.7    11.4     4.5    5.72    2.66     0.0    1.5    0.0    0.00    0.21
 2013 305    73    70    16.9     0.0    16.9    0.00    4.31      0.4    19.8    12.1     4.8    5.72    2.66     0.0    1.5    0.0    0.00    0.23
 2013 306    74    71    17.9     0.0    17.9    0.00    4.30      0.5    20.9    12.8     5.1    5.71    2.65     0.0    1.5    0.0    0.01    0.25
 2013 307    75    72    19.8     0.0    19.8    0.00    4.28      0.5    23.2    14.1     5.7    5.71    2.65     0.0    1.5    0.0    0.01    0.27
 2013 308    76    73    22.0     0.0    22.0    0.00    4.26      0.6    25.8    15.6     6.5    5.70    2.64     0.0    1.5    0.0    0.01    0.28
 2013 309    77    74    24.6     0.0    24.6    0.00    4.24      0.6    28.8    17.3     7.3    5.70    2.64     0.0    1.5    0.0    0.01    0.30
 2013 310    78    75    27.8     0.0    27.8    0.00    4.21      0.7    32.5    19.4     8.4    5.69    2.63     0.0    1.5    0.0    0.01    0.32
 2013 311    79    76    30.7     0.0    30.7    0.00    4.20      0.7    36.0    21.3     9.3    5.70    2.62     0.0    1.5    0.0    0.03    0.35
 2013 312    80    77    33.1     0.0    33.1    0.00    4.19      0.8    38.9    22.9    10.2    5.72    2.62     0.0    1.5    0.0    0.07    0.38
 2013 313    81    78    35.1     0.0    35.1    0.00    4.19      0.8    41.2    24.2    10.9    5.73    2.62     0.0    1.5    0.0    0.10    0.41
 2013 314    82    79    36.3     0.0    36.3    0.00    4.15      1.3    42.3    25.0    11.3    5.71    2.60     0.0    1.5    0.4    0.16    0.50
 2013 315    83    80    37.8     0.0    37.8    0.00    3.89      2.2    43.7    26.0    11.8    5.49    2.36     0.0    1.4    0.8    0.20    0.53
 2013 316    84    81    41.2     0.0    41.2    0.00    3.78      3.2    46.7    28.2    13.1    5.39    2.30     0.0    1.4    0.9    0.24    0.57
 2013 317    85    82    45.3     0.0    45.3    0.00    3.77      3.5    51.2    30.7    14.6    5.39    2.31     0.0    1.4    0.2    0.28    0.61
 2013 318    86    83    49.6     0.0    49.6    0.00    3.75      3.5    56.1    33.4    16.2    5.39    2.31     0.0    1.4    0.0    0.32    0.68
 2013 319    87    84    52.1     0.0    52.1    0.00    3.73      4.6    57.9    34.9    17.2    5.38    2.30     4.0    1.4    1.1    0.36    0.76
 2013 320    88    85    55.7     0.0    55.6    0.00    3.68      5.9    60.9    37.1    18.5    5.34    2.27     4.0    1.4    1.1    0.40    0.79
 2013 321    89    86    59.7     0.0    59.3    0.00    3.64      7.4    64.1    39.3    20.0    5.30    2.25     3.9    1.4    1.3    0.44    0.83
 2013 322    90    87    62.8     0.0    62.2    0.00    3.52      9.2    66.2    41.2    21.0    5.20    2.15     3.9    1.4    1.5    0.50    0.89
 2013 323    91    88    64.7     0.0    63.5    0.00    3.50      9.2    68.3    42.0    21.5    5.19    2.15     3.9    1.4    0.0    0.54    1.07
 2013 324    92    89    67.0     0.0    65.3    0.00    3.48     10.8    69.5    43.0    22.3    5.17    2.14     3.9    1.4    1.6    0.59    1.13
 2013 325    93    90    70.0     0.0    67.4    0.00    3.41     12.6    71.2    44.3    23.2    5.09    2.09     3.9    1.3    1.6    0.65    1.19
 2013 326    94    91    72.1     0.0    68.5    0.00    3.25     14.8    72.0    44.9    23.6    4.96    1.96     3.9    1.3    1.9    0.71    1.24
 2013 327    95    92    75.4     0.0    70.6    0.00    3.15     17.3    73.6    46.3    24.4    4.88    1.89     3.9    1.3    2.1    0.77    1.31
 2013 328    96    93    78.3     0.0    72.3    0.00    3.06     20.3    74.5    47.3    25.0    4.79    1.81     3.8    1.3    2.5    0.83    1.38
 2013 329    97    94    82.0     0.0    74.3    0.00    3.03     23.3    75.6    48.4    25.9    4.77    1.81     3.8    1.3    2.9    0.90    1.47
 2013 330    98    95    84.4     0.0    74.8    0.00    3.00     24.8    76.6    48.6    26.2    4.73    1.79     3.8    1.3    1.5    0.97    1.55
 2013 331    99    96    87.6     0.0    75.8    0.00    2.96     28.3    77.1    49.1    26.7    4.68    1.77     3.8    1.2    3.0    1.04    1.70
 2013 332   100    97    91.8     0.0    77.7    0.00    2.93     32.5    78.1    50.1    27.6    4.64    1.75     3.8    1.2    3.5    1.08    1.76
 2013 333   101    98    96.1     0.0    79.5    0.00    2.88     37.3    78.6    51.0    28.5    4.59    1.73     3.8    1.2    4.1    1.14    1.83
 2013 334   102    99   100.8     0.0    81.6    0.00    2.86     42.5    79.0    52.1    29.5    4.58    1.72     3.8    1.2    4.8    1.21    1.91
 2013 335   103   100   104.1     0.0    81.9    0.00    2.82     43.7    81.2    52.3    29.7    4.54    1.69     3.8    1.2    1.2    1.27    1.99
 2013 336   104   101   109.0     0.0    83.7    0.00    2.82     48.7    81.4    53.2    30.6    4.54    1.70     3.8    1.2    5.1    1.34    2.08
 2013 337   105   102   113.8     0.0    85.3    0.00    2.80     52.6    82.6    53.9    31.4    4.53    1.70     3.8    1.2    3.9    1.40    2.14
 2013 338   106   103   118.3     0.0    87.2    0.00    2.79     57.4    82.8    54.8    32.3    4.52    1.70     3.7    1.2    4.8    1.66    2.22
 2013 339   107   104   122.5     0.0    88.6    6.23    2.77     61.6    83.9    55.5    33.1    4.50    1.69     3.7    1.2    4.2    2.41    2.30
 2013 340   108   105   126.5     0.2    89.7    6.22    2.76     66.2    84.1    56.0    33.8    4.49    1.69     3.7    1.2    4.6    2.97    2.37
 2013 341   109   106   131.3     0.4    91.6    6.20    2.75     70.9    84.9    56.8    34.8    4.49    1.69     3.7    1.2    4.7    3.45    2.45
 2013 342   110   107   134.8     0.7    92.6    6.32    2.74     74.7    85.8    57.2    35.4    4.47    1.68     3.7    1.2    3.8    4.48    2.54
 2013 343   111   108   135.9     1.2    91.2    6.37    2.71     75.5    87.2    56.4    34.8    4.44    1.66     3.7    1.2    0.7    5.55    2.65
 2013 344   112   109   139.7     1.9    92.1    6.30    2.71     81.2    87.4    56.7    35.4    4.44    1.67     3.7    1.2    5.1    6.93    2.73
 2013 345   113   110   143.7     2.7    93.1    6.27    2.70     86.0    88.2    57.1    36.0    4.44    1.67     3.7    1.2    4.8    8.26    2.80
 2013 346   114   111   148.0     3.8    94.0    6.25    2.69     90.7    89.2    57.4    36.6    4.43    1.67     3.6    1.2    4.7    9.47    2.88
 2013 347   115   112   152.3     5.1    94.5    6.28    2.68     95.0    90.4    57.5    37.0    4.42    1.67     3.6    1.2    4.3   10.55    2.98
 2013 348   116   113   154.5     6.5    94.7    6.33    2.67    100.6    90.6    57.4    37.3    4.40    1.66     3.6    1.2    5.7   13.14    3.08
 2013 349   117   114   158.7     8.3    93.9    6.38    2.65    104.6    91.8    56.9    37.0    4.38    1.65     3.6    1.2    4.0   13.23    3.19
 2013 350   118   115   160.5    10.1    93.4    6.43    2.63    109.4    92.3    56.5    36.9    4.35    1.64     3.6    1.2    4.8   15.42    3.30
 2013 351   119   116   163.4    12.1    92.9    6.42    2.61    115.1    92.7    56.1    36.8    4.33    1.62     3.5    1.2    5.7   17.14    3.39
 2013 352   120   117   166.2    14.5    91.8    6.42    2.59    119.3    94.1    55.4    36.4    4.30    1.61     3.5    1.2    4.2   19.07    3.49
 2013 353   121   118   169.3    17.2    90.4    6.43    2.57    124.2    94.6    54.6    35.8    4.28    1.59     3.5    1.2    4.9   20.28    3.59
 2013 354   122   119   171.2    20.1    89.2    6.44    2.54    129.8    95.1    53.8    35.4    4.25    1.58     3.5    1.2    5.5   23.16    3.69
 2013 355   123   120   174.4    23.5    88.0    6.46    2.52    134.2    96.7    53.1    34.9    4.22    1.56     3.5    1.2    4.5   24.94    3.79
 2013 356   124   121   177.8    27.1    86.5    6.47    2.50    139.8    97.3    52.2    34.3    4.18    1.55     3.4    1.2    5.6   26.62    3.89
 2013 357   125   122   181.6    31.0    85.1    6.47    2.47    145.6    97.6    51.3    33.8    4.15    1.53     3.4    1.2    5.7   27.68    3.99
 2013 358   126   123   185.3    34.9    83.7    6.49    2.45    150.0    99.1    50.5    33.2    4.12    1.51     3.4    1.2    4.4   28.94    4.09
 2013 359   127   124   188.1    38.9    82.3    6.50    2.42    155.5    99.3    49.7    32.7    4.09    1.50     3.4    1.2    5.5   30.84    4.18
 2013 360   128   125   191.8    42.9    81.5    6.54    2.41    159.0   100.6    49.1    32.4    4.06    1.49     3.3    1.2    3.4   31.87    4.27
 2013 361   129   126   194.4    47.3    80.0    6.56    2.39    162.2   101.3    48.2    31.8    4.03    1.47     3.3    1.2    3.2   33.00    4.38
 2013 362   130   127   197.1    52.3    78.2    6.57    2.36    165.7   102.6    47.1    31.0    3.99    1.45     3.2    1.2    3.5   34.36    4.47
 2013 363   131   128   199.6    57.3    76.5    6.60    2.33    168.4   103.5    46.2    30.4    3.96    1.44     3.2    1.1    2.7   35.33    4.57
 2013 364   132   129   203.0    62.1    75.4    6.62    2.31    172.2   104.5    45.5    30.0    3.93    1.42     3.2    1.1    3.8   36.64    4.66
 2013 365   133   130   203.7    67.3    73.6    6.62    2.28    173.4   104.9    44.4    29.2    3.89    1.40     3.1    1.1    1.2   37.64    4.75
 2014 001   134   131   206.5    73.0    71.7    6.61    2.25    177.2   106.2    43.3    28.4    3.84    1.38     3.0    1.1    3.8   38.76    4.84
 2014 002   135   132   207.8    79.3    69.7    6.61    2.21    181.3   106.5    42.1    27.6    3.79    1.35     3.0    1.1    4.1   41.17    4.93
 2014 003   136   133   212.6    86.4    67.9    6.58    2.17    185.8   107.4    41.0    26.8    3.74    1.32     2.9    1.1    4.6   41.28    5.00
 2014 004   137   134   216.7    92.8    66.1    6.55    2.14    190.1   108.9    40.0    26.1    3.69    1.30     2.9    1.1    4.2   42.29    5.06
 2014 005   138   135   220.6    99.6    64.4    6.54    2.10    195.1   109.2    39.0    25.4    3.64    1.27     2.8    1.1    5.1   43.23    5.13
 2014 006   139   136   224.4   106.9    62.5    6.55    2.06    199.8   109.6    37.9    24.6    3.58    1.25     2.8    1.1    4.7   44.12    5.22
 2014 007   140   137   227.9   114.2    61.0    6.55    2.03    202.3   111.6    37.0    24.0    3.54    1.23     2.7    1.1    2.5   45.06    5.30
 2014 008   141   138   231.8   122.5    59.2    6.57    1.99    206.4   112.1    35.9    23.3    3.48    1.20     2.6    1.1    4.1   45.94    5.37
 2014 009   142   139   235.7   130.9    57.4    6.59    1.95    210.3   113.0    34.8    22.5    3.42    1.17     2.5    1.1    3.9   46.84    5.45
 2014 010   143   140   236.9   136.3    55.6    6.59    1.91    211.6   113.6    33.8    21.8    3.36    1.14     2.5    1.1    1.3   47.60    5.52
 2014 011   144   141   238.2   141.2    53.9    6.58    1.87    212.2   114.7    32.8    21.1    3.30    1.11     2.4    1.0    0.7   48.15    5.58
 2014 012   145   142   241.0   147.3    52.4    6.57    1.83    214.8   115.3    31.9    20.5    3.25    1.09     2.3    1.0    2.6   48.54    5.63
 2014 013   146   143   243.9   153.6    50.9    6.57    1.79    216.8   116.4    31.0    19.9    3.19    1.06     2.2    1.0    2.0   48.85    5.70
 2014 014   147   144   246.3   159.4    49.2    6.57    1.75    219.2   116.7    30.0    19.2    3.13    1.03     2.2    1.0    2.3   49.24    5.77
 2014 015   148   145   251.0   167.1    47.7    6.58    1.71    222.8   117.9    29.1    18.6    3.07    1.01     2.1    1.0    3.7   49.42    5.83
 2014 016   149   146   255.5   174.6    46.3    6.59    1.67    227.2   118.2    28.3    18.0    3.01    0.98     2.0    1.0    4.4   49.59    5.90
 2014 017   150   147   259.9   181.7    44.8    6.61    1.63    230.9   118.8    27.4    17.5    2.95    0.96     2.0    1.0    3.7   49.73    5.97
 2014 018   151   148   263.8   188.3    43.5    6.62    1.59    234.3   119.5    26.6    16.9    2.89    0.93     1.9    1.0    3.4   49.84    6.04
 2014 019   152   149   267.0   194.0    42.2    6.64    1.56    236.1   121.0    25.8    16.4    2.84    0.91     1.8    1.0    1.8   49.92    6.11
 2014 020   153   150   270.2   199.6    41.0    6.65    1.52    238.8   121.4    25.1    15.9    2.79    0.89     1.8    1.0    2.8   49.99    6.18
 2014 021   154   151   271.4   203.1    39.7    6.58    1.49    238.8   122.8    24.3    15.4    2.73    0.87     1.7    1.0    0.0   50.06    6.25
 2014 022   155   152   266.5   206.2    32.9    6.51    1.39    238.8   123.7    18.8    14.1    2.67    0.84     1.7    1.0    0.0   55.82    6.32
 2014 023   156   153   262.7   208.7    27.6    6.45    1.29    238.8   124.4    14.6    13.0    2.60    0.83     1.6    1.0    0.0   60.27    6.39
 2014 024   157   154   259.6   210.6    23.5    6.45    1.20    238.8   124.7    11.3    12.1    2.54    0.81     1.6    1.0    0.0   63.72    6.81
 2014 025   158   155   257.1   212.0    20.3    6.45    1.13    238.8   124.9     8.8    11.5    2.50    0.79     1.5    1.0    0.0   66.40    7.25
 2014 026   159   156   256.1   214.3    17.8    6.45    1.06    238.8   126.0     6.9    10.9    2.45    0.78     1.5    1.0    0.0   68.50    7.66
 2014 027   160   157   254.5   214.5    16.1    6.45    1.01    238.8   126.0     5.5    10.6    2.45    0.78     1.5    1.0    0.0   70.13    8.07
 2014 028   161   158   253.2   215.2    14.6    6.45    0.96    238.8   126.0     4.3    10.3    2.42    0.77     1.4    1.0    0.0   71.43    8.47
 2014 029   162   159   252.2   215.2    13.6    6.45    0.93    238.8   126.0     3.5    10.1    2.42    0.77     1.4    1.0    0.0   72.45    8.84
 2014 030   163   160   251.4   215.2    12.7    6.45    0.91    238.8   126.0     2.8    10.0    2.43    0.77     1.4    1.0    0.0   73.27    9.21
 2014 031   164   161   250.7   215.2    12.1    6.45    0.88    238.8   126.0     2.2     9.9    2.43    0.77     1.4    1.0    0.0   73.93    9.52
 2014 032   165   162   250.2   215.2    11.6    6.45    0.86    238.8   126.0     1.8     9.8    2.44    0.77     1.4    1.0    0.0   74.45    9.88
 2014 033   166   163   249.8   215.2    11.2    6.45    0.85    238.8   126.0     1.4     9.7    2.44    0.78     1.4    1.0    0.0   74.87   10.18
