*SOIL NITROGEN DAILY OUTPUT FILE

*DSSAT Cropping System Model Ver. 4.0.2.000               Aug 23, 2016; 16:35:33

*RUN   1        : UYSB                    
 MODEL          : CRGRO040 - Soybean         
 EXPERIMENT     : UYSB0221 SB    late to create DSS                             
 TREATMENT  1   : UYSB                    

@YEAR DOY   DAS  NAPC  NI#M    NLCC   NIAD    NOAD   NITD   NHTD  NI1D  NI2D  NI3D  NI4D  NI5D  NI6D  NI7D  NI8D  NI9D  NI10  NH1D  NH2D  NH3D  NH4D  NH5D  NH6D  NH7D  NH8D  NH9D  NH10    NMNC    NITC    NDNC    NIMC    AMLC
 1999 232     0     0     0     0.0   54.9   16645   32.6   22.3   6.6   5.4   5.2   4.7   2.6   0.0   0.1   0.1   0.0   0.0   0.0   1.2   1.5   1.4   1.4  1.50  1.46  1.45  0.00  0.00    0.68    2.30    0.00    0.00    0.00
 1999 233     1     0     0     0.0   55.6   16645   33.9   21.7   6.6   5.7   5.3   4.8   2.7   0.0   0.1   0.1   0.0   0.0   0.1   1.0   1.4   1.4   1.4  1.51  1.43  1.41  0.00  0.00    1.37    3.63    0.00    0.00    0.00
 1999 234     2     0     0     0.0   56.3   16644   35.2   21.1   6.8   6.0   5.5   4.9   2.8   0.1   0.2   0.2   0.0   0.0   0.1   0.9   1.4   1.3   1.3  1.51  1.39  1.36  0.00  0.00    2.08    4.96    0.00    0.00    0.00
 1999 235     3     0     0     0.0   57.0   16643   36.4   20.5   2.6   6.4   7.0   5.0   2.8   0.1   0.2   0.2   0.0   0.0   0.1   0.8   1.4   1.2   1.3  1.51  1.36  1.32  0.00  0.00    2.74    6.15    0.00    0.00    0.00
 1999 236     4     0     0     0.0   57.6   16643   37.3   20.3   2.6   6.2   7.2   5.1   2.9   0.1   0.2   0.3   0.0   0.0   0.2   0.9   1.3   1.2   1.2  1.52  1.33  1.28  0.00  0.00    3.37    6.99    0.00    0.00    0.00
 1999 237     5     0     0     0.0   58.2   16642   38.2   20.0   2.8   6.1   7.4   5.2   3.0   0.1   0.3   0.3   0.0   0.0   0.1   1.0   1.3   1.2   1.2  1.52  1.29  1.24  0.00  0.00    3.96    7.90    0.00    0.00    0.00
 1999 238     6     0     0     0.0   58.7   16642   39.1   19.6   2.9   6.2   7.5   5.3   3.0   0.1   0.3   0.3   0.0   0.0   0.1   0.9   1.3   1.1   1.2  1.52  1.27  1.20  0.00  0.00    4.51    8.85    0.00    0.00    0.00
 1999 239     7     0     0     0.0   59.2   16641   40.0   19.3   2.9   6.4   7.6   5.4   3.1   0.2   0.4   0.4   0.0   0.0   0.1   0.8   1.3   1.1   1.1  1.52  1.24  1.16  0.00  0.00    5.01    9.70    0.00    0.00    0.00
 1999 240     8     0     0     0.0   59.7   16641   40.8   18.9   3.0   6.5   7.7   5.5   3.1   0.2   0.4   0.4   0.0   0.0   0.1   0.8   1.3   1.1   1.1  1.53  1.21  1.13  0.00  0.00    5.51   10.53    0.00    0.00    0.00
 1999 241     9     0     0     0.0   60.2   16640   41.6   18.6   3.1   6.6   7.7   5.6   3.2   0.2   0.4   0.5   0.0   0.0   0.1   0.7   1.3   1.0   1.1  1.53  1.19  1.10  0.00  0.00    6.00   11.32    0.00    0.00    0.00
 1999 242    10     0     0     0.0   60.7   16640   42.4   18.3   3.3   6.7   7.8   5.7   3.2   0.2   0.5   0.5   0.0   0.0   0.1   0.7   1.3   1.0   1.0  1.53  1.16  1.07  0.00  0.00    6.48   12.09    0.00    0.00    0.00
 1999 243    11     0     0     0.0   61.2   16639   43.2   18.1   3.4   6.8   7.9   5.8   3.3   0.2   0.5   0.5   0.0   0.0   0.1   0.7   1.2   1.0   1.0  1.53  1.14  1.03  0.00  0.00    7.01   12.89    0.00    0.00    0.00
 1999 244    12     0     0     0.0   61.8   16638   44.0   17.8   3.5   6.9   8.0   5.9   3.3   0.2   0.5   0.6   0.0   0.0   0.1   0.6   1.2   0.9   1.0  1.54  1.11  1.00  0.00  0.00    7.57   13.72    0.00    0.00    0.00
 1999 245    13     0     0     0.0   62.4   16638   44.8   17.6   3.3   7.1   8.1   5.9   3.4   0.3   0.6   0.6   0.0   0.0   0.1   0.6   1.2   0.9   1.0  1.54  1.09  0.98  0.00  0.00    8.14   14.54    0.00    0.00    0.00
 1999 246    14     0     0     0.0   63.0   16637   45.6   17.4   2.3   7.5   8.4   6.0   3.4   0.3   0.6   0.6   0.0   0.0   0.2   0.6   1.2   0.9   0.9  1.54  1.07  0.95  0.00  0.00    8.74   15.33    0.00    0.00    0.00
 1999 247    15     0     0     0.0   63.5   16637   46.3   17.2   2.5   7.2   8.7   6.1   3.5   0.3   0.6   0.7   0.0   0.0   0.1   0.7   1.2   0.9   0.9  1.54  1.05  0.92  0.00  0.00    9.29   16.07    0.00    0.00    0.00
 1999 248    16     0     0     0.0   64.0   16636   46.9   17.1   2.2   7.0   8.9   6.2   3.5   0.3   0.7   0.7   0.0   0.0   0.2   0.7   1.2   0.8   0.9  1.55  1.02  0.89  0.00  0.00    9.82   16.69    0.00    0.00    0.00
 1999 249    17     0     0     0.0   64.5   16636   47.6   16.9   1.8   6.4   9.4   6.5   3.6   0.3   0.7   0.7   0.0   0.0   0.2   0.8   1.2   0.8   0.9  1.55  1.00  0.87  0.00  0.00   10.32   17.35    0.00    0.00    0.00
 1999 250    18     0     0     0.0   65.0   16635   48.1   16.9   1.3   5.5   8.9   7.5   3.7   0.3   0.7   0.8   0.0   0.0   0.1   0.9   1.3   0.8   0.9  1.55  0.98  0.84  0.00  0.00   10.85   17.86    0.00    0.00    0.00
 1999 251    19     0     0     0.0   65.5   16635   48.4   17.1   1.3   5.4   8.8   7.4   4.1   0.4   0.8   0.8   0.0   0.0   0.2   0.9   1.4   0.8   0.8  1.55  0.97  0.82  0.00  0.00   11.39   18.24    0.04    0.00    0.00
 1999 252    20     0     0     0.0   66.0   16634   48.9   17.2   1.6   5.3   8.7   7.3   4.3   0.4   0.8   0.8   0.0   0.0   0.1   1.0   1.4   0.8   0.8  1.56  0.95  0.80  0.00  0.00   11.95   18.72    0.06    0.00    0.00
 1999 253    21     0     0     0.0   66.6   16634   49.5   17.1   1.8   5.5   8.7   7.3   4.4   0.4   0.8   0.8   0.0   0.0   0.1   0.9   1.5   0.9   0.8  1.56  0.93  0.77  0.00  0.00   12.51   19.36    0.06    0.00    0.00
 1999 254    22     0     0     0.0   67.1   16633   50.2   16.9   2.1   5.5   8.8   7.3   4.5   0.4   0.9   0.9   0.0   0.0   0.1   0.8   1.5   0.9   0.8  1.56  0.91  0.75  0.00  0.00   13.06   20.12    0.06    0.00    0.00
 1999 255    23     0     0     0.0   67.6   16632   50.9   16.7   2.3   5.6   8.9   7.3   4.5   0.4   0.9   0.9   0.0   0.0   0.1   0.8   1.4   0.9   0.8  1.56  0.89  0.73  0.00  0.00   13.58   20.81    0.06    0.00    0.00
 1999 256    24     0     0     0.0   68.1   16632   51.6   16.5   2.1   5.8   9.0   7.4   4.6   0.4   0.9   0.9   0.0   0.0   0.1   0.7   1.4   0.9   0.8  1.56  0.88  0.71  0.00  0.00   14.10   21.56    0.06    0.00    0.00
 1999 257    25     0     0     0.0   68.6   16631   52.2   16.4   2.2   5.8   9.1   7.4   4.6   0.5   0.9   0.9   0.0   0.0   0.1   0.8   1.4   0.9   0.8  1.57  0.86  0.69  0.00  0.00   14.64   22.19    0.06    0.00    0.00
 1999 258    26     0     0     0.0   69.1   16631   53.0   16.1   2.4   5.9   9.2   7.5   4.7   0.5   1.0   1.0   0.0   0.0   0.1   0.7   1.4   0.8   0.7  1.57  0.85  0.67  0.00  0.00   15.18   22.95    0.06    0.00    0.00
 1999 259    27     0     0     0.0   69.6   16630   53.7   15.9   2.6   6.0   9.3   7.5   4.7   0.5   1.0   1.0   0.0   0.0   0.1   0.7   1.3   0.8   0.7  1.57  0.83  0.66  0.00  0.00   15.74   23.71    0.06    0.00    0.00
 1999 260    28     0     0     0.0   70.2   16630   54.5   15.7   2.8   6.1   9.4   7.6   4.7   0.5   1.0   1.0   0.0   0.0   0.1   0.6   1.3   0.8   0.7  1.57  0.82  0.64  0.00  0.00   16.33   24.50    0.06    0.00    0.00
 1999 261    29     0     0     0.0   70.8   16629   55.2   15.6   3.0   6.2   9.5   7.6   4.8   0.5   1.0   1.0   0.0   0.0   0.1   0.6   1.3   0.8   0.7  1.58  0.80  0.62  0.00  0.00   16.94   25.29    0.06    0.00    0.00
 1999 262    30     0     0     0.0   71.3   16628   56.0   15.4   3.3   6.3   9.6   7.7   4.8   0.6   1.1   1.0   0.0   0.0   0.1   0.6   1.3   0.8   0.7  1.58  0.79  0.60  0.00  0.00   17.58   26.10    0.06    0.00    0.00
 1999 263    31     0     0     0.0   71.9   16628   56.7   15.2   3.5   6.4   9.7   7.7   4.9   0.6   1.1   1.1   0.0   0.0   0.1   0.6   1.3   0.8   0.7  1.58  0.78  0.59  0.00  0.00   18.24   26.91    0.06    0.00    0.00
 1999 264    32     0     0     0.0   72.5   16627   57.5   15.0   3.8   6.5   9.8   7.8   4.9   0.6   1.1   1.1   0.0   0.0   0.1   0.5   1.2   0.7   0.7  1.58  0.76  0.57  0.00  0.00   18.92   27.75    0.06    0.00    0.00
 1999 265    33     0     0     0.0   73.1   16626   58.3   14.9   4.0   6.6   9.9   7.8   4.9   0.6   1.1   1.1   0.0   0.0   0.1   0.5   1.2   0.7   0.7  1.58  0.75  0.56  0.00  0.00   19.60   28.57    0.06    0.00    0.00
 1999 266    34     0     0     0.0   73.7   16626   59.0   14.8   4.2   6.7  10.0   7.9   5.0   0.6   1.2   1.1   0.0   0.0   0.1   0.5   1.2   0.7   0.7  1.58  0.74  0.54  0.00  0.00   20.27   29.35    0.06    0.00    0.00
 1999 267    35     0     0     0.0   74.3   16625   59.6   14.6   4.4   6.8  10.1   7.9   5.0   0.7   1.2   1.1   0.0   0.0   0.1   0.5   1.2   0.7   0.7  1.58  0.72  0.53  0.00  0.00   20.89   30.08    0.06    0.00    0.00
 1999 268    36     0     0     0.0   74.8   16625   60.3   14.5   4.6   6.9  10.2   8.0   5.0   0.7   1.2   1.2   0.0   0.0   0.1   0.5   1.2   0.7   0.7  1.59  0.71  0.52  0.00  0.00   21.53   30.81    0.06    0.00    0.00
 1999 269    37     0     0     0.0   75.4   16624   60.9   14.4   4.8   6.9  10.3   8.0   5.1   0.7   1.2   1.2   0.0   0.0   0.1   0.5   1.2   0.7   0.6  1.59  0.70  0.50  0.00  0.00   22.13   31.50    0.06    0.00    0.00
 1999 270    38     0     0     0.0   75.9   16623   61.6   14.4   5.0   7.0  10.3   8.0   5.1   0.7   1.2   1.2   0.0   0.0   0.1   0.5   1.2   0.7   0.6  1.59  0.69  0.49  0.00  0.00   22.70   32.15    0.06    0.00    0.00
 1999 271    39     0     0     0.0   76.4   16623   62.1   14.3   5.2   7.1  10.4   8.1   5.1   0.7   1.3   1.2   0.0   0.0   0.1   0.5   1.2   0.7   0.6  1.59  0.68  0.48  0.00  0.00   23.28   32.80    0.06    0.00    0.00
 1999 272    40     0     0     0.0   76.9   16622   62.7   14.2   5.4   7.2  10.5   8.1   5.2   0.7   1.3   1.2   0.0   0.0   0.1   0.5   1.2   0.7   0.6  1.59  0.67  0.47  0.00  0.00   23.85   33.44    0.06    0.00    0.00
 1999 273    41     0     0     0.0   77.3   16622   63.2   14.1   5.6   7.2  10.5   8.1   5.2   0.8   1.3   1.2   0.0   0.0   0.1   0.5   1.2   0.7   0.6  1.59  0.66  0.46  0.00  0.00   24.39   34.05    0.06    0.00    0.00
 1999 274    42     0     0     0.0   77.7   16621   63.7   14.0   3.8   7.5  11.1   8.2   5.2   0.8   1.3   1.3   0.0   0.0   0.1   0.5   1.2   0.7   0.6  1.59  0.65  0.44  0.00  0.00   24.95   34.68    0.06    0.00    0.00
 1999 275    43     0     0     0.0   78.2   16621   64.2   14.0   3.8   7.3  11.2   8.3   5.3   0.8   1.3   1.3   0.0   0.0   0.1   0.6   1.2   0.6   0.6  1.59  0.64  0.43  0.00  0.00   25.49   35.18    0.06    0.00    0.00
 1999 276    44     0     0     0.0   78.6   16620   64.6   14.0   4.0   7.2  11.2   8.4   5.3   0.8   1.4   1.3   0.0   0.0   0.1   0.6   1.1   0.6   0.6  1.59  0.63  0.42  0.00  0.00   26.00   35.68    0.06    0.00    0.00
 1999 277    45     0     0     0.0   79.0   16620   65.1   14.0   4.2   7.2  11.3   8.4   5.3   0.8   1.4   1.3   0.0   0.0   0.1   0.6   1.1   0.6   0.6  1.59  0.63  0.42  0.00  0.00   26.47   36.23    0.06    0.00    0.00
 1999 278    46     0     0     0.0   79.4   16619   65.6   13.9   4.5   7.2  11.3   8.5   5.3   0.8   1.4   1.3   0.0   0.0   0.1   0.6   1.1   0.6   0.6  1.60  0.62  0.41  0.00  0.00   26.93   36.76    0.06    0.00    0.00
 1999 279    47     0     0     0.0   79.8   16619   66.0   13.8   4.5   7.3  11.4   8.5   5.4   0.9   1.4   1.3   0.0   0.0   0.1   0.6   1.1   0.6   0.6  1.60  0.61  0.40  0.00  0.00   27.34   37.25    0.06    0.00    0.00
 1999 280    48     0     0     0.0   80.1   16618   66.4   13.7   3.6   7.6  11.6   8.5   5.4   0.9   1.4   1.3   0.0   0.0   0.1   0.6   1.1   0.6   0.6  1.60  0.60  0.39  0.00  0.00   27.78   37.76    0.06    0.00    0.00
 1999 281    49     0     0     0.0   80.5   16618   66.8   13.7   3.6   7.5  11.7   8.6   5.4   0.9   1.4   1.3   0.0   0.0   0.1   0.6   1.1   0.6   0.6  1.60  0.60  0.38  0.00  0.00   28.23   38.18    0.06    0.00    0.00
 1999 282    50     0     0     0.0   80.8   16617   67.0   13.8   3.7   7.4  11.6   8.7   5.5   0.9   1.5   1.4   0.0   0.0   0.1   0.7   1.2   0.6   0.6  1.60  0.59  0.37  0.00  0.00   28.71   38.53    0.06    0.00    0.00
 1999 283    51     0     0     0.0   81.2   16617   67.3   13.9   3.9   7.4  11.6   8.7   5.5   0.9   1.5   1.4   0.0   0.0   0.1   0.6   1.2   0.6   0.6  1.60  0.58  0.37  0.00  0.00   29.21   38.95    0.06    0.00    0.00
 1999 284    52     0     0     0.0   81.5   16616   67.7   13.8   4.2   7.4  11.6   8.7   5.5   0.9   1.5   1.4   0.0   0.0   0.1   0.6   1.2   0.6   0.6  1.60  0.57  0.36  0.00  0.00   29.74   39.57    0.06    0.00    0.00
 1999 285    53     0     0     0.0   81.7   16616   68.1   13.7   2.2   5.9  10.9   9.1   6.5   1.3   1.5   1.4   0.0   0.0   0.1   0.6   1.2   0.6   0.6  1.60  0.57  0.35  0.00  0.00   30.30   40.19    0.06    0.00    0.00
 1999 286    54     0     0     0.4   81.8   16615   67.8   14.1   1.2   4.6   9.6   8.6   6.9   2.1   1.7   1.6   0.0   0.0   0.2   0.7   1.3   0.7   0.6  1.61  0.57  0.35  0.00  0.00   30.85   40.30    0.06    0.00    0.00
 1999 287    55     0     0     1.1   81.5   16615   67.1   14.4   1.3   4.5   9.4   8.3   6.8   2.2   1.7   1.5   0.0   0.0   0.1   0.7   1.3   0.7   0.6  1.62  0.58  0.35  0.00  0.00   31.39   40.48    0.06    0.00    0.00
 1999 288    56     0     0     1.5   81.5   16614   66.8   14.8   1.5   4.5   9.3   8.2   6.8   2.3   1.7   1.5   0.0   0.0   0.1   0.8   1.4   0.7   0.6  1.64  0.59  0.35  0.00  0.00   31.94   40.67    0.06    0.00    0.00
 1999 289    57     0     0     1.7   81.6   16614   66.7   14.9   1.6   4.6   9.2   8.1   6.7   2.4   1.7   1.5   0.0   0.0   0.1   0.7   1.5   0.7   0.7  1.65  0.59  0.35  0.00  0.00   32.50   41.02    0.06    0.00    0.00
 1999 290    58     0     0     1.9   81.7   16613   66.6   15.1   1.9   4.6   9.1   8.0   6.7   2.4   1.7   1.5   0.0   0.0   0.1   0.7   1.5   0.7   0.7  1.66  0.59  0.35  0.00  0.00   33.05   41.36    0.10    0.00    0.00
 1999 291    59     0     0     1.9   81.7   16612   66.7   15.0   2.1   4.6   9.1   8.0   6.7   2.4   1.7   1.5   0.0   0.0   0.1   0.6   1.5   0.8   0.7  1.67  0.60  0.35  0.00  0.00   33.63   41.90    0.12    0.00    0.00
 1999 292    60     0     0     1.9   81.9   16612   66.8   15.0   2.3   4.7   9.1   7.9   6.6   2.4   1.7   1.5   0.0   0.0   0.1   0.6   1.4   0.8   0.7  1.68  0.60  0.35  0.00  0.00   34.26   42.46    0.13    0.00    0.00
 1999 293    61     0     0     1.9   82.0   16611   67.1   14.9   2.6   4.8   9.2   8.0   6.6   2.4   1.7   1.5   0.0   0.0   0.1   0.6   1.4   0.8   0.7  1.69  0.61  0.35  0.00  0.00   34.95   43.16    0.13    0.00    0.00
 1999 294    62     0     0     1.9   82.2   16610   67.3   14.8   2.8   4.9   9.2   8.0   6.6   2.3   1.7   1.5   0.0   0.0   0.1   0.5   1.3   0.7   0.8  1.69  0.61  0.35  0.00  0.00   35.66   43.86    0.14    0.00    0.00
 1999 295    63     0     0     1.9   82.2   16610   67.5   14.7   3.0   5.0   9.2   8.0   6.6   2.3   1.7   1.5   0.0   0.0   0.1   0.5   1.3   0.7   0.8  1.70  0.61  0.35  0.00  0.00   36.40   44.58    0.14    0.00    0.00
 1999 296    64     0     0     1.9   82.3   16609   67.6   14.7   3.2   5.0   9.2   8.0   6.5   2.3   1.7   1.5   0.0   0.0   0.1   0.5   1.2   0.7   0.8  1.71  0.61  0.35  0.00  0.00   37.13   45.26    0.15    0.00    0.00
 1999 297    65     0     0     1.9   82.3   16608   67.8   14.6   3.4   5.1   9.2   8.0   6.6   2.3   1.7   1.5   0.0   0.0   0.1   0.5   1.2   0.7   0.8  1.71  0.62  0.35  0.00  0.00   37.83   45.97    0.15    0.00    0.00
 1999 298    66     0     0     1.9   82.3   16608   67.9   14.5   3.6   5.2   9.2   8.0   6.6   2.3   1.7   1.5   0.0   0.0   0.1   0.5   1.1   0.7   0.7  1.72  0.62  0.35  0.00  0.00   38.52   46.64    0.15    0.00    0.00
 1999 299    67     0     0     1.9   82.2   16607   67.9   14.3   3.8   5.2   9.1   8.0   6.6   2.3   1.7   1.5   0.0   0.0   0.1   0.5   1.1   0.7   0.7  1.70  0.62  0.35  0.00  0.00   39.18   47.32    0.15    0.00    0.00
 1999 300    68     0     0     1.9   81.6   16606   67.5   14.1   4.0   5.2   9.0   7.9   6.5   2.3   1.7   1.5   0.0   0.0   0.1   0.5   1.1   0.6   0.7  1.68  0.62  0.35  0.00  0.00   39.82   47.98    0.15    0.00    0.00
 1999 301    69     0     0     1.9   80.8   16606   66.9   13.8   4.1   5.2   8.8   7.8   6.5   2.3   1.7   1.5   0.0   0.0   0.1   0.5   1.0   0.6   0.7  1.66  0.62  0.35  0.00  0.00   40.47   48.64    0.15    0.00    0.00
 1999 302    70     0     0     1.9   80.0   16605   66.4   13.6   4.2   5.2   8.6   7.7   6.4   2.3   1.7   1.5   0.0   0.0   0.1   0.5   1.0   0.6   0.7  1.64  0.60  0.35  0.00  0.00   41.15   49.36    0.15    0.00    0.00
 1999 303    71     0     0     1.9   78.9   16604   65.6   13.3   4.4   5.2   8.4   7.6   6.3   2.3   1.7   1.5   0.0   0.0   0.1   0.5   1.0   0.6   0.6  1.61  0.59  0.35  0.00  0.00   41.86   50.10    0.15    0.00    0.00
 1999 304    72     0     0     1.9   78.1   16603   65.1   13.0   4.5   5.2   8.2   7.6   6.2   2.2   1.7   1.5   0.0   0.0   0.1   0.5   0.9   0.6   0.6  1.58  0.57  0.35  0.00  0.00   42.57   50.82    0.15    0.00    0.00
 1999 305    73     0     0     1.9   76.6   16603   64.0   12.7   4.6   5.1   8.0   7.4   6.1   2.2   1.7   1.5   0.0   0.0   0.1   0.4   0.9   0.6   0.6  1.55  0.56  0.35  0.00  0.00   43.28   51.53    0.15    0.00    0.00
 1999 306    74     0     0     1.9   75.9   16602   63.4   12.5   4.7   5.1   7.8   7.4   6.1   2.2   1.7   1.5   0.0   0.0   0.1   0.4   0.9   0.5   0.6  1.52  0.54  0.35  0.00  0.00   43.97   52.20    0.15    0.00    0.00
 1999 307    75     0     0     1.9   73.7   16601   61.7   12.0   4.8   5.0   7.4   7.2   5.9   2.1   1.7   1.5   0.0   0.0   0.1   0.4   0.8   0.5   0.6  1.47  0.52  0.35  0.00  0.00   44.64   52.87    0.15    0.00    0.00
 1999 308    76     0     0     1.9   71.4   16601   59.9   11.6   4.8   4.9   7.1   7.0   5.7   2.1   1.6   1.5   0.0   0.0   0.1   0.4   0.8   0.5   0.5  1.43  0.50  0.34  0.00  0.00   45.29   53.49    0.15    0.00    0.00
 1999 309    77     0     0     1.9   71.0   16600   59.5   11.5   4.9   4.9   7.0   6.9   5.7   2.1   1.6   1.5   0.0   0.0   0.1   0.4   0.8   0.5   0.5  1.41  0.50  0.33  0.00  0.00   45.90   54.06    0.15    0.00    0.00
 1999 310    78     0     0     1.9   68.5   16600   57.4   11.1   4.9   4.7   6.5   6.7   5.5   2.0   1.6   1.4   0.0   0.0   0.1   0.4   0.8   0.5   0.5  1.35  0.49  0.33  0.00  0.00   46.49   54.62    0.15    0.00    0.00
 1999 311    79     0     0     1.9   65.1   16599   54.5   10.7   4.9   4.5   6.0   6.4   5.2   1.9   1.5   1.4   0.0   0.0   0.1   0.4   0.7   0.5   0.5  1.28  0.49  0.32  0.00  0.00   47.09   55.17    0.15    0.00    0.00
 1999 312    80     0     0     1.9   63.2   16598   52.8   10.4   4.9   4.4   5.7   6.2   5.0   1.8   1.5   1.4   0.0   0.0   0.1   0.4   0.7   0.5   0.5  1.23  0.49  0.31  0.00  0.00   47.66   55.69    0.15    0.00    0.00
 1999 313    81     0     0     1.9   60.9   16598   50.8   10.1   4.8   4.3   5.3   5.9   4.8   1.8   1.5   1.4   0.0   0.0   0.1   0.4   0.6   0.5   0.5  1.18  0.48  0.31  0.00  0.00   48.20   56.18    0.15    0.00    0.00
 1999 314    82     0     0     1.9   58.8   16597   48.9    9.9   4.8   4.2   5.0   5.7   4.6   1.7   1.4   1.4   0.0   0.0   0.1   0.4   0.6   0.5   0.5  1.13  0.48  0.30  0.00  0.00   48.74   56.66    0.15    0.00    0.00
 1999 315    83     0     0     1.9   56.2   16597   46.7    9.5   2.3   4.4   5.3   5.5   4.4   1.6   1.4   1.3   0.0   0.0   0.1   0.4   0.6   0.5   0.5  1.07  0.47  0.30  0.00  0.00   49.25   57.13    0.15    0.00    0.00
 1999 316    84     0     0     1.9   52.4   16596   43.1    9.3   1.9   4.0   4.5   5.2   4.1   1.5   1.3   1.3   0.0   0.0   0.1   0.5   0.5   0.5   0.5  1.00  0.47  0.29  0.00  0.00   49.84   57.50    0.15    0.00    0.00
 1999 317    85     0     0     1.9   48.1   16596   39.0    9.1   1.8   3.0   3.6   5.0   3.9   1.4   1.3   1.3   0.0   0.0   0.1   0.5   0.6   0.5   0.5  0.94  0.47  0.29  0.00  0.00   50.46   58.00    0.15    0.00    0.00
 1999 318    86     0     0     1.9   43.8   16595   35.0    8.8   1.7   2.3   2.8   4.6   3.6   1.3   1.2   1.2   0.0   0.0   0.1   0.5   0.6   0.5   0.5  0.87  0.46  0.28  0.00  0.00   51.12   58.54    0.15    0.00    0.00
 1999 319    87     0     0     1.9   39.4   16594   31.0    8.4   1.7   1.8   2.0   4.3   3.3   1.2   1.1   1.2   0.0   0.0   0.1   0.5   0.6   0.5   0.5  0.79  0.46  0.27  0.00  0.00   51.81   59.11    0.15    0.00    0.00
 1999 320    88     0     0     1.9   34.5   16594   26.6    7.9   1.7   1.3   1.4   3.8   2.9   1.0   1.0   1.1   0.0   0.0   0.1   0.5   0.6   0.5   0.5  0.69  0.46  0.27  0.00  0.00   52.51   59.71    0.15    0.00    0.00
 1999 321    89     0     0     1.9   30.4   16593   22.9    7.5   1.6   1.1   1.0   3.3   2.5   0.9   0.9   1.1   0.0   0.0   0.1   0.4   0.5   0.5   0.5  0.59  0.45  0.27  0.00  0.00   53.20   60.32    0.15    0.00    0.00
 1999 322    90     0     0     1.9   27.0   16592   19.9    7.1   0.8   1.2   0.9   2.9   2.1   0.7   0.8   1.0   0.0   0.0   0.1   0.4   0.5   0.5   0.5  0.51  0.45  0.26  0.00  0.00   53.87   60.90    0.15    0.00    0.00
 1999 323    91     0     0     1.9   23.5   16591   16.2    7.3   0.4   0.7   0.4   2.5   1.8   0.6   0.7   0.9   0.0   0.0   0.1   0.5   0.6   0.5   0.5  0.52  0.45  0.26  0.00  0.00   54.64   61.35    0.15    0.00    0.00
 1999 324    92     0     0     1.9   21.3   16591   14.1    7.2   0.6   0.4   0.5   2.1   1.5   0.5   0.6   0.8   0.0   0.0   0.1   0.5   0.6   0.5   0.5  0.52  0.44  0.25  0.00  0.00   55.43   62.02    0.15    0.00    0.00
 1999 325    93     0     0     1.9   19.8   16590   12.6    7.2   0.4   0.6   0.6   1.8   1.3   0.4   0.5   0.8   0.0   0.0   0.1   0.5   0.6   0.5   0.5  0.52  0.44  0.25  0.00  0.00   56.20   62.63    0.15    0.00    0.00
 1999 326    94     0     0     1.9   18.0   16589   10.8    7.1   0.6   0.4   0.3   1.5   1.1   0.4   0.5   0.7   0.0   0.0   0.1   0.5   0.6   0.5   0.5  0.52  0.44  0.24  0.00  0.00   56.94   63.24    0.15    0.00    0.00
 1999 327    95     0     0     1.9   17.4   16589   10.3    7.1   0.6   0.6   0.4   1.3   0.9   0.4   0.5   0.7   0.0   0.0   0.1   0.4   0.6   0.5   0.5  0.52  0.44  0.24  0.00  0.00   57.62   63.82    0.15    0.00    0.00
 1999 328    96     0     0     1.9   16.5   16588    9.5    7.0   0.6   0.4   0.5   1.1   0.8   0.4   0.5   0.6   0.0   0.0   0.1   0.4   0.5   0.5   0.5  0.52  0.43  0.24  0.00  0.00   58.28   64.37    0.15    0.00    0.00
 1999 329    97     0     0     1.9   16.1   16587    9.1    7.0   0.3   0.5   0.6   0.9   0.6   0.5   0.5   0.6   0.0   0.0   0.1   0.4   0.5   0.5   0.5  0.51  0.43  0.23  0.00  0.00   58.89   64.91    0.15    0.00    0.00
 1999 330    98     0     0     1.9   14.4   16587    7.1    7.3   0.4   0.3   0.3   0.4   0.6   0.5   0.5   0.5   0.0   0.0   0.1   0.5   0.6   0.5   0.5  0.51  0.43  0.23  0.00  0.00   59.63   65.23    0.15    0.00    0.00
 1999 331    99     0     0     1.9   14.3   16586    6.9    7.5   0.4   0.3   0.3   0.4   0.5   0.5   0.4   0.5   0.0   0.0   0.2   0.6   0.6   0.5   0.5  0.51  0.43  0.23  0.00  0.00   60.35   65.46    0.15    0.00    0.00
 1999 332   100     0     0     1.9   14.6   16585    7.6    7.1   0.7   0.5   0.3   0.5   0.5   0.5   0.5   0.5   0.0   0.0   0.1   0.5   0.6   0.5   0.5  0.51  0.43  0.22  0.00  0.00   61.07   66.16    0.15    0.00    0.00
 1999 333   101     0     0     1.9   14.8   16584    7.7    7.1   0.4   0.6   0.4   0.5   0.5   0.5   0.5   0.5   0.0   0.0   0.1   0.5   0.6   0.5   0.5  0.51  0.42  0.22  0.00  0.00   61.83   66.72    0.15    0.00    0.00
 1999 334   102     0     0     1.9   14.2   16584    7.1    7.1   0.6   0.4   0.5   0.3   0.4   0.5   0.5   0.5   0.0   0.0   0.1   0.5   0.6   0.5   0.5  0.51  0.42  0.22  0.00  0.00   62.61   67.34    0.15    0.00    0.00
 1999 335   103     0     0     1.9   14.7   16583    7.7    7.0   0.6   0.6   0.6   0.3   0.4   0.5   0.5   0.5   0.0   0.0   0.1   0.5   0.6   0.5   0.5  0.51  0.42  0.21  0.00  0.00   63.39   67.98    0.15    0.00    0.00
 1999 336   104     0     0     1.9   14.5   16582    7.5    7.0   0.6   0.5   0.3   0.4   0.5   0.5   0.5   0.5   0.0   0.0   0.1   0.4   0.6   0.5   0.5  0.52  0.42  0.21  0.00  0.00   64.21   68.65    0.15    0.00    0.00
 1999 337   105     0     0     1.9   15.0   16581    7.9    7.1   0.3   0.7   0.4   0.4   0.5   0.5   0.5   0.5   0.0   0.0   0.2   0.4   0.6   0.5   0.5  0.51  0.42  0.21  0.00  0.00   65.03   69.21    0.15    0.00    0.00
 1999 338   106     0     0     1.9   14.6   16581    7.5    7.1   0.6   0.3   0.5   0.5   0.4   0.5   0.4   0.5   0.0   0.0   0.0   0.6   0.6   0.5   0.5  0.51  0.41  0.21  0.00  0.00   65.83   69.81    0.15    0.00    0.00
 1999 339   107     0     0     1.9   14.4   16580    7.4    7.0   0.3   0.5   0.6   0.5   0.4   0.4   0.4   0.5   0.0   0.0   0.2   0.5   0.6   0.5   0.5  0.51  0.41  0.20  0.00  0.00   66.61   70.41    0.15    0.00    0.00
 1999 340   108     0     0     1.9   13.9   16579    6.8    7.1   0.3   0.6   0.3   0.4   0.5   0.4   0.5   0.5   0.0   0.0   0.3   0.5   0.6   0.5   0.5  0.51  0.41  0.20  0.00  0.00   67.33   70.90    0.15    0.00    0.00
 1999 341   109     0     0     1.9   14.0   16578    7.0    7.0   0.6   0.4   0.4   0.4   0.5   0.4   0.5   0.5   0.0   0.0   0.1   0.5   0.6   0.5   0.5  0.51  0.41  0.20  0.00  0.00   67.99   71.51    0.15    0.00    0.00
 1999 342   110     0     0     1.9   14.3   16578    7.3    7.0   0.4   0.5   0.4   0.4   0.5   0.4   0.5   0.5   0.0   0.0   0.1   0.5   0.5   0.5   0.5  0.51  0.41  0.20  0.00  0.00   68.63   72.01    0.15    0.00    0.00
 1999 343   111     0     0     1.9   14.5   16577    7.6    6.9   0.6   0.6   0.5   0.5   0.4   0.4   0.5   0.5   0.0   0.0   0.1   0.5   0.5   0.5   0.5  0.51  0.41  0.19  0.00  0.00   69.25   72.54    0.15    0.00    0.00
 1999 344   112     0     0     1.9   14.5   16577    7.6    6.9   0.4   0.4   0.6   0.5   0.4   0.4   0.5   0.5   0.0   0.0   0.1   0.4   0.5   0.5   0.5  0.51  0.40  0.19  0.00  0.00   69.83   73.04    0.15    0.00    0.00
 1999 345   113     0     0     1.9   14.5   16576    7.4    7.1   0.5   0.4   0.3   0.5   0.5   0.4   0.5   0.5   0.0   0.0   0.1   0.6   0.6   0.5   0.5  0.51  0.40  0.19  0.00  0.00   70.54   73.45    0.15    0.00    0.00
 1999 346   114     0     0     1.9   14.4   16575    7.5    6.9   0.5   0.6   0.4   0.4   0.5   0.4   0.4   0.5   0.0   0.0   0.1   0.5   0.6   0.5   0.5  0.51  0.40  0.19  0.00  0.00   71.29   74.10    0.15    0.00    0.00
 1999 347   115     0     0     1.9   14.4   16575    7.2    7.2   0.5   0.3   0.5   0.5   0.4   0.5   0.4   0.5   0.0   0.0   0.3   0.6   0.6   0.5   0.5  0.51  0.40  0.19  0.00  0.00   72.07   74.50    0.15    0.00    0.00
 1999 348   116     0     0     1.9   14.4   16574    7.4    7.1   0.9   0.3   0.3   0.5   0.4   0.5   0.5   0.5   0.0   0.0   0.0   0.6   0.6   0.5   0.5  0.51  0.40  0.19  0.00  0.00   72.85   75.11    0.15    0.00    0.00
 1999 349   117     0     0     1.9   14.1   16573    7.2    6.9   0.3   0.5   0.4   0.4   0.5   0.5   0.5   0.5   0.0   0.0   0.1   0.4   0.6   0.5   0.5  0.51  0.40  0.18  0.00  0.00   73.62   75.71    0.15    0.00    0.00
 1999 350   118     0     0     1.9   14.4   16572    7.5    6.9   0.5   0.4   0.5   0.4   0.5   0.5   0.5   0.5   0.0   0.0   0.1   0.5   0.6   0.5   0.5  0.51  0.39  0.18  0.00  0.00   74.38   76.35    0.15    0.00    0.00
 1999 351   119     0     0     1.9   14.7   16572    7.8    6.8   0.6   0.6   0.5   0.5   0.4   0.5   0.5   0.5   0.0   0.0   0.1   0.5   0.6   0.5   0.5  0.51  0.39  0.18  0.00  0.00   75.13   76.95    0.15    0.00    0.00
 1999 352   120     0     0     1.9   14.4   16571    7.6    6.8   0.7   0.4   0.3   0.5   0.5   0.5   0.5   0.5   0.0   0.0   0.1   0.4   0.6   0.5   0.5  0.51  0.39  0.18  0.00  0.00   75.85   77.58    0.15    0.00    0.00
 1999 353   121     0     0     1.9   14.4   16570    7.7    6.7   0.4   0.7   0.5   0.4   0.5   0.5   0.4   0.5   0.0   0.0   0.1   0.4   0.5   0.5   0.5  0.51  0.39  0.18  0.00  0.00   76.56   78.24    0.15    0.00    0.00
 1999 354   122     0     0     1.9   14.6   16570    7.7    6.9   0.5   0.3   0.6   0.5   0.5   0.5   0.4   0.5   0.0   0.0   0.1   0.5   0.6   0.5   0.5  0.51  0.39  0.18  0.00  0.00   77.40   78.72    0.15    0.00    0.00
 1999 355   123     0     0     1.9   14.3   16569    7.6    6.8   0.5   0.5   0.3   0.5   0.4   0.5   0.5   0.5   0.0   0.0   0.1   0.5   0.6   0.5   0.5  0.51  0.39  0.17  0.00  0.00   78.24   79.51    0.15    0.00    0.00
 1999 356   124     0     0     1.9   14.7   16568    8.0    6.7   0.6   0.7   0.4   0.4   0.5   0.5   0.5   0.5   0.0   0.0   0.1   0.4   0.6   0.5   0.5  0.51  0.38  0.17  0.00  0.00   79.06   80.18    0.15    0.00    0.00
 1999 357   125     0     0     1.9   14.4   16567    7.7    6.6   0.7   0.4   0.5   0.5   0.5   0.4   0.5   0.5   0.0   0.0   0.0   0.4   0.5   0.5   0.5  0.51  0.38  0.17  0.00  0.00   79.81   80.88    0.15    0.00    0.00
 1999 358   126     0     0     1.9   14.1   16567    7.5    6.6   0.3   0.7   0.4   0.5   0.4   0.4   0.5   0.5   0.0   0.0   0.1   0.4   0.5   0.5   0.5  0.51  0.38  0.17  0.00  0.00   80.49   81.46    0.15    0.00    0.00
 1999 359   127     0     0     1.9   14.1   16566    7.3    6.8   0.5   0.3   0.5   0.4   0.5   0.4   0.5   0.5   0.0   0.0   0.1   0.5   0.6   0.5   0.5  0.51  0.38  0.17  0.00  0.00   81.30   81.95    0.15    0.00    0.00
 1999 360   128     0     0     1.9   14.3   16565    7.7    6.7   0.5   0.5   0.6   0.5   0.5   0.4   0.4   0.5   0.0   0.0   0.1   0.5   0.6   0.5   0.5  0.51  0.38  0.17  0.00  0.00   82.13   82.71    0.15    0.00    0.00
 1999 361   129     0     0     1.9   14.3   16564    7.7    6.6   0.7   0.7   0.3   0.5   0.5   0.4   0.5   0.5   0.0   0.0   0.1   0.4   0.6   0.5   0.5  0.51  0.37  0.17  0.00  0.00   82.96   83.45    0.15    0.00    0.00
 1999 362   130     0     0     1.9   14.1   16563    7.6    6.5   0.7   0.5   0.4   0.5   0.5   0.5   0.5   0.5   0.0   0.0   0.1   0.4   0.5   0.5   0.5  0.51  0.37  0.17  0.00  0.00   83.79   84.21    0.15    0.00    0.00
 1999 363   131     0     0     1.9   14.6   16563    8.2    6.4   0.6   0.7   0.5   0.5   0.5   0.5   0.5   0.5   0.0   0.0   0.1   0.4   0.5   0.5   0.5  0.51  0.37  0.16  0.00  0.00   84.59   84.93    0.15    0.00    0.00
 1999 364   132     0     0     1.9   13.7   16562    7.3    6.4   0.4   0.4   0.3   0.4   0.5   0.5   0.5   0.5   0.0   0.0   0.1   0.3   0.5   0.5   0.5  0.51  0.37  0.16  0.00  0.00   85.35   85.59    0.15    0.00    0.00
 1999 365   133     0     0     1.9   14.3   16561    7.9    6.4   0.6   0.5   0.4   0.5   0.5   0.5   0.5   0.5   0.0   0.0   0.1   0.3   0.5   0.4   0.4  0.51  0.37  0.16  0.00  0.00   86.04   86.19    0.15    0.00    0.00
 2000 001   134     0     0     1.9   14.4   16561    8.1    6.4   0.3   0.5   0.6   0.5   0.5   0.5   0.5   0.5   0.0   0.0   0.1   0.3   0.5   0.4   0.4  0.51  0.37  0.16  0.00  0.00   86.65   86.73    0.15    0.00    0.00
 2000 002   135     0     0     1.9   13.8   16560    7.3    6.6   0.4   0.5   0.3   0.5   0.5   0.5   0.5   0.5   0.0   0.0   0.1   0.5   0.6   0.4   0.4  0.51  0.37  0.16  0.00  0.00   87.36   87.12    0.15    0.00    0.00
 2000 003   136     0     0     1.9   14.4   16559    7.9    6.5   0.6   0.6   0.4   0.5   0.5   0.5   0.5   0.5   0.0   0.0   0.1   0.5   0.6   0.4   0.4  0.51  0.36  0.16  0.00  0.00   88.09   87.73    0.15    0.00    0.00
 2000 004   137     0     0     1.9   14.4   16559    7.9    6.5   0.5   0.4   0.5   0.5   0.5   0.5   0.5   0.5   0.0   0.0   0.1   0.5   0.6   0.4   0.4  0.51  0.36  0.16  0.00  0.00   88.82   88.35    0.15    0.00    0.00
 2000 005   138     0     0     1.9   14.6   16558    8.2    6.4   0.6   0.6   0.6   0.5   0.5   0.5   0.5   0.5   0.0   0.0   0.1   0.4   0.5   0.4   0.4  0.51  0.36  0.16  0.00  0.00   89.53   88.99    0.15    0.00    0.00
 2000 006   139     0     0     1.9   14.3   16557    7.9    6.3   0.4   0.5   0.5   0.5   0.5   0.5   0.5   0.5   0.0   0.0   0.1   0.4   0.5   0.4   0.4  0.51  0.36  0.16  0.00  0.00   90.20   89.62    0.15    0.00    0.00
 2000 007   140     0     0     1.9   14.5   16557    7.9    6.6   0.5   0.5   0.5   0.5   0.5   0.4   0.5   0.5   0.0   0.0   0.1   0.5   0.6   0.4   0.4  0.51  0.36  0.15  0.00  0.00   91.03   90.10    0.15    0.00    0.00
 2000 008   141     0     0     1.9   14.2   16556    7.8    6.4   0.5   0.7   0.3   0.5   0.5   0.5   0.5   0.5   0.0   0.0   0.1   0.4   0.6   0.4   0.4  0.51  0.36  0.15  0.00  0.00   91.88   90.92    0.15    0.00    0.00
 2000 009   142     0     0     1.9   14.1   16555    7.7    6.3   0.6   0.5   0.4   0.5   0.5   0.5   0.5   0.5   0.0   0.0   0.1   0.4   0.5   0.4   0.4  0.51  0.35  0.15  0.00  0.00   92.69   91.64    0.15    0.00    0.00
 2000 010   143     0     0     1.9   14.4   16554    8.2    6.2   0.7   0.7   0.5   0.5   0.5   0.5   0.5   0.5   0.0   0.0   0.0   0.4   0.5   0.4   0.4  0.51  0.35  0.15  0.00  0.00   93.47   92.41    0.15    0.00    0.00
 2000 011   144     0     0     1.9   14.1   16554    7.9    6.2   0.4   0.6   0.5   0.5   0.5   0.5   0.5   0.5   0.0   0.0   0.1   0.3   0.5   0.4   0.4  0.51  0.35  0.15  0.00  0.00   94.21   93.09    0.15    0.00    0.00
 2000 012   145     0     0     1.9   14.0   16553    7.6    6.4   0.6   0.3   0.4   0.5   0.5   0.5   0.5   0.5   0.0   0.0   0.1   0.5   0.6   0.4   0.4  0.51  0.35  0.15  0.00  0.00   95.14   93.68    0.15    0.00    0.00
 2000 013   146     0     0     1.9   14.2   16552    7.9    6.3   0.4   0.6   0.5   0.5   0.5   0.5   0.5   0.5   0.0   0.0   0.1   0.4   0.6   0.4   0.4  0.51  0.35  0.15  0.00  0.00   96.05   94.49    0.15    0.00    0.00
 2000 014   147     0     0     1.9   14.4   16551    8.2    6.2   0.5   0.4   0.7   0.6   0.5   0.5   0.5   0.5   0.0   0.0   0.0   0.4   0.6   0.4   0.4  0.51  0.35  0.15  0.00  0.00   96.93   95.34    0.15    0.00    0.00
 2000 015   148     0     0     1.9   14.6   16550    7.9    6.7   0.5   0.4   0.5   0.5   0.5   0.5   0.5   0.5   0.0   0.0   0.2   0.6   0.7   0.4   0.4  0.51  0.34  0.15  0.00  0.00   97.82   95.63    0.15    0.00    0.00
 2000 016   149     0     0     1.9   14.6   16550    8.3    6.4   0.8   0.7   0.5   0.4   0.5   0.5   0.5   0.5   0.0   0.0   0.0   0.4   0.6   0.4   0.4  0.51  0.34  0.15  0.00  0.00   98.72   96.42    0.15    0.00    0.00
 2000 017   150     0     0     1.9   14.2   16549    7.5    6.7   0.3   0.3   0.5   0.4   0.5   0.5   0.5   0.5   0.0   0.0   0.2   0.6   0.6   0.4   0.4  0.51  0.34  0.15  0.00  0.00   99.61   96.72    0.15    0.00    0.00
 2000 018   151     0     0     1.9   14.3   16548    8.0    6.3   0.6   0.5   0.5   0.5   0.6   0.5   0.5   0.5   0.0   0.0   0.0   0.4   0.6   0.4   0.4  0.51  0.34  0.14  0.00  0.00  100.47   97.57    0.15    0.00    0.00
 2000 019   152     0     0     1.9   14.1   16547    7.7    6.4   0.3   0.4   0.5   0.5   0.5   0.5   0.5   0.5   0.0   0.0   0.2   0.4   0.6   0.5   0.4  0.51  0.34  0.14  0.00  0.00  101.30   98.11    0.15    0.00    0.00
 2000 020   153     0     0     1.9   13.9   16546    7.5    6.4   0.6   0.6   0.3   0.3   0.5   0.5   0.5   0.5   0.0   0.0   0.0   0.4   0.6   0.5   0.4  0.51  0.34  0.14  0.00  0.00  102.14   98.86    0.15    0.00    0.00
 2000 021   154     0     0     1.9   14.0   16546    7.5    6.4   0.5   0.4   0.4   0.4   0.5   0.5   0.5   0.5   0.0   0.0   0.1   0.4   0.6   0.5   0.4  0.51  0.34  0.14  0.00  0.00  102.98   99.47    0.15    0.00    0.00
 2000 022   155     0     0     1.9   14.6   16545    8.3    6.3   0.8   0.6   0.5   0.4   0.5   0.5   0.5   0.5   0.0   0.0   0.0   0.4   0.6   0.5   0.4  0.51  0.33  0.14  0.00  0.00  103.79  100.21    0.15    0.00    0.00
 2000 023   156     0     0     1.9   14.4   16544    8.1    6.3   0.8   0.6   0.3   0.5   0.5   0.5   0.5   0.5   0.0   0.0   0.1   0.4   0.6   0.5   0.4  0.51  0.33  0.14  0.00  0.00  104.57  100.80    0.15    0.00    0.00
 2000 024   157     0     0     1.9   14.4   16544    8.2    6.2   0.6   0.6   0.5   0.5   0.5   0.5   0.5   0.5   0.0   0.0   0.0   0.4   0.5   0.5   0.4  0.51  0.33  0.14  0.00  0.00  105.29  101.49    0.15    0.00    0.00
 2000 025   158     0     0     1.9   14.2   16543    7.7    6.5   0.3   0.3   0.6   0.4   0.5   0.5   0.5   0.5   0.0   0.0   0.2   0.5   0.6   0.5   0.4  0.51  0.33  0.14  0.00  0.00  106.13  101.89    0.15    0.00    0.00
 2000 026   159     0     0     1.9   13.9   16542    7.5    6.4   0.6   0.5   0.3   0.5   0.5   0.5   0.5   0.5   0.0   0.0   0.1   0.5   0.6   0.5   0.4  0.51  0.33  0.14  0.00  0.00  106.94  102.64    0.15    0.00    0.00
 2000 027   160     0     0     1.9   14.4   16541    8.0    6.4   0.4   0.6   0.4   0.5   0.5   0.5   0.5   0.5   0.0   0.0   0.1   0.5   0.6   0.5   0.4  0.51  0.33  0.14  0.00  0.00  107.70  103.22    0.15    0.00    0.00
 2000 028   161     0     0     1.9   14.2   16541    7.8    6.3   0.6   0.4   0.5   0.5   0.5   0.5   0.5   0.5   0.0   0.0   0.1   0.5   0.6   0.5   0.4  0.51  0.33  0.14  0.00  0.00  108.43  103.87    0.15    0.00    0.00
 2000 029   162     0     0     1.9   14.6   16540    8.3    6.3   0.7   0.6   0.6   0.5   0.5   0.5   0.5   0.5   0.0   0.0   0.1   0.4   0.5   0.5   0.4  0.51  0.33  0.14  0.00  0.00  109.12  104.47    0.15    0.00    0.00
 2000 030   163     0     0     1.9   14.3   16539    8.1    6.2   0.3   0.3   0.5   0.7   0.6   0.5   0.5   0.5   0.0   0.0   0.1   0.4   0.5   0.5   0.4  0.51  0.33  0.14  0.00  0.00  109.79  105.10    0.15    0.00    0.00
 2000 031   164     0     0     1.9   15.2   16539    8.4    6.8   0.4   0.4   0.5   0.6   0.7   0.5   0.5   0.5   0.0   0.0   0.1   0.5   0.7   0.5   0.4  0.52  0.32  0.14  0.00  0.00  110.64  105.34    0.15    0.00    0.00
 2000 032   165     0     0     1.9   16.0   16538    8.7    7.3   0.7   0.4   0.5   0.6   0.7   0.5   0.5   0.5   0.0   0.0   0.1   0.7   0.8   0.6   0.4  0.53  0.32  0.13  0.00  0.00  111.51  105.70    0.15    0.00    0.00
 2000 033   166     0     0     1.9   16.9   16537    9.2    7.6   0.8   0.6   0.5   0.6   0.7   0.5   0.5   0.5   0.0   0.0   0.1   0.6   1.0   0.6   0.4  0.54  0.32  0.13  0.00  0.00  112.37  106.24    0.15    0.00    0.00
 2000 034   167     0     0     1.9   17.7   16536    9.9    7.8   0.9   0.9   0.6   0.7   0.8   0.5   0.5   0.5   0.0   0.0   0.1   0.6   1.0   0.7   0.5  0.55  0.32  0.13  0.00  0.00  113.21  106.93    0.15    0.00    0.00
 2000 035   168     0     0     1.9   18.6   16536   10.4    8.2   1.0   0.9   0.8   0.7   0.8   0.5   0.6   0.5   0.0   0.0   0.1   0.7   1.0   0.7   0.5  0.56  0.32  0.13  0.00  0.00  114.05  107.38    0.15    0.00    0.00
 2000 036   169     0     0     1.9   19.4   16535   11.1    8.3   1.2   1.1   0.9   0.7   0.8   0.5   0.6   0.5   0.0   0.0   0.1   0.7   1.0   0.8   0.5  0.57  0.32  0.13  0.00  0.00  114.88  108.09    0.15    0.00    0.00
 2000 037   170     0     0     1.9   20.3   16534   11.9    8.4   1.4   1.3   1.0   0.8   0.8   0.6   0.6   0.5   0.0   0.0   0.1   0.6   1.1   0.8   0.5  0.58  0.32  0.13  0.00  0.00  115.75  108.92    0.15    0.00    0.00

*DSSAT Cropping System Model Ver. 4.0.2.000               Aug 23, 2016; 16:35:33

*RUN   2        : UYSB                    
 MODEL          : CRGRO040 - Soybean         
 EXPERIMENT     : UYSB0221 SB    late to create DSS                             
 TREATMENT  1   : UYSB                    

@YEAR DOY   DAS  NAPC  NI#M    NLCC   NIAD    NOAD   NITD   NHTD  NI1D  NI2D  NI3D  NI4D  NI5D  NI6D  NI7D  NI8D  NI9D  NI10  NH1D  NH2D  NH3D  NH4D  NH5D  NH6D  NH7D  NH8D  NH9D  NH10    NMNC    NITC    NDNC    NIMC    AMLC
 2000 232     0     0     0     0.0   54.8   16645   32.2   22.7   6.2   5.3   5.1   4.7   2.6   0.0   0.1   0.1   0.0   0.0   0.4   1.3   1.5   1.4   1.4  1.50  1.46  1.45  0.00  0.00    0.59    1.89    0.00    0.00    0.00
 2000 233     1     0     0     0.0   55.4   16645   33.5   21.9   6.6   5.6   5.3   4.8   2.7   0.0   0.1   0.1   0.0   0.0   0.2   1.1   1.4   1.4   1.4  1.51  1.43  1.41  0.00  0.00    1.20    3.26    0.00    0.00    0.00
 2000 234     2     0     0     0.0   56.0   16644   34.7   21.3   6.6   5.8   5.4   4.9   2.7   0.1   0.1   0.2   0.0   0.0   0.1   1.0   1.4   1.3   1.3  1.51  1.40  1.36  0.00  0.00    1.81    4.45    0.00    0.00    0.00
 2000 235     3     0     0     0.0   56.7   16644   35.9   20.8   2.7   5.8   7.1   5.0   2.8   0.1   0.2   0.2   0.0   0.0   0.1   0.9   1.4   1.3   1.3  1.51  1.36  1.32  0.00  0.00    2.43    5.59    0.00    0.00    0.00
 2000 236     4     0     0     0.0   57.3   16643   36.8   20.5   2.7   5.6   7.4   5.1   2.9   0.1   0.2   0.3   0.0   0.0   0.1   1.0   1.4   1.2   1.3  1.52  1.33  1.28  0.00  0.00    3.07    6.52    0.00    0.00    0.00
 2000 237     5     0     0     0.0   57.9   16642   37.7   20.3   1.6   4.7   7.5   6.1   2.9   0.1   0.3   0.3   0.0   0.0   0.2   1.1   1.3   1.2   1.2  1.52  1.30  1.24  0.00  0.00    3.72    7.40    0.00    0.00    0.00
 2000 238     6     0     0     0.0   58.6   16642   38.3   20.2   1.6   4.6   7.4   6.4   3.0   0.1   0.3   0.3   0.0   0.0   0.3   1.1   1.4   1.1   1.2  1.52  1.27  1.20  0.00  0.00    4.33    8.05    0.00    0.00    0.00
 2000 239     7     0     0     0.0   59.2   16641   39.1   20.1   1.9   4.6   7.3   6.5   3.1   0.2   0.4   0.4   0.0   0.0   0.1   1.2   1.5   1.1   1.1  1.52  1.24  1.17  0.00  0.00    4.93    8.81    0.00    0.00    0.00
 2000 240     8     0     0     0.0   59.7   16641   40.0   19.8   2.1   4.8   7.3   6.6   3.2   0.2   0.4   0.4   0.0   0.0   0.1   1.1   1.6   1.1   1.1  1.53  1.21  1.13  0.00  0.00    5.50    9.68    0.00    0.00    0.00
 2000 241     9     0     0     0.0   60.3   16640   40.9   19.4   2.3   4.9   7.4   6.7   3.3   0.2   0.4   0.5   0.0   0.0   0.1   1.0   1.5   1.0   1.1  1.53  1.19  1.10  0.00  0.00    6.03   10.63    0.00    0.00    0.00
 2000 242    10     0     0     0.0   60.7   16640   41.7   19.0   2.6   5.0   7.5   6.7   3.3   0.2   0.5   0.5   0.0   0.0   0.1   0.9   1.5   1.0   1.0  1.53  1.16  1.07  0.00  0.00    6.52   11.48    0.00    0.00    0.00
 2000 243    11     0     0     0.0   61.2   16639   42.5   18.7   2.8   5.1   7.6   6.8   3.4   0.2   0.5   0.5   0.0   0.0   0.1   0.8   1.5   1.0   1.0  1.53  1.14  1.04  0.00  0.00    6.99   12.27    0.00    0.00    0.00
 2000 244    12     0     0     0.0   61.7   16639   43.3   18.4   3.0   5.2   7.7   6.8   3.5   0.2   0.5   0.6   0.0   0.0   0.1   0.8   1.5   1.0   1.0  1.54  1.11  1.01  0.00  0.00    7.47   13.07    0.00    0.00    0.00
 2000 245    13     0     0     0.0   62.2   16638   44.1   18.1   3.1   5.3   7.8   6.8   3.5   0.3   0.6   0.6   0.0   0.0   0.1   0.7   1.4   0.9   1.0  1.54  1.09  0.98  0.00  0.00    7.95   13.83    0.00    0.00    0.00
 2000 246    14     0     0     0.0   62.6   16638   44.8   17.8   3.3   5.3   7.9   6.9   3.6   0.3   0.6   0.6   0.0   0.0   0.1   0.7   1.4   0.9   1.0  1.54  1.07  0.95  0.00  0.00    8.40   14.55    0.00    0.00    0.00
 2000 247    15     0     0     0.0   63.1   16637   45.5   17.6   3.5   5.4   7.9   6.9   3.6   0.3   0.6   0.7   0.0   0.0   0.1   0.7   1.4   0.9   0.9  1.54  1.05  0.92  0.00  0.00    8.87   15.27    0.00    0.00    0.00
 2000 248    16     0     0     0.0   63.5   16637   46.2   17.3   3.6   5.5   8.0   7.0   3.7   0.3   0.7   0.7   0.0   0.0   0.1   0.6   1.4   0.9   0.9  1.55  1.03  0.90  0.00  0.00    9.35   15.98    0.00    0.00    0.00
 2000 249    17     0     0     0.0   64.0   16636   46.9   17.1   3.8   5.5   8.1   7.0   3.7   0.3   0.7   0.7   0.0   0.0   0.1   0.6   1.3   0.9   0.9  1.55  1.01  0.87  0.00  0.00    9.82   16.67    0.00    0.00    0.00
 2000 250    18     0     0     0.0   64.5   16636   47.6   16.9   4.0   5.6   8.2   7.0   3.8   0.3   0.7   0.7   0.0   0.0   0.1   0.6   1.3   0.8   0.9  1.55  0.99  0.85  0.00  0.00   10.31   17.37    0.00    0.00    0.00
 2000 251    19     0     0     0.0   65.0   16635   48.3   16.7   4.1   5.7   8.3   7.1   3.8   0.4   0.8   0.8   0.0   0.0   0.1   0.6   1.3   0.8   0.9  1.55  0.97  0.82  0.00  0.00   10.83   18.09    0.00    0.00    0.00
 2000 252    20     0     0     0.0   65.5   16635   49.0   16.5   4.3   5.7   8.4   7.1   3.9   0.4   0.8   0.8   0.0   0.0   0.1   0.6   1.3   0.8   0.8  1.55  0.95  0.80  0.00  0.00   11.40   18.86    0.00    0.00    0.00
 2000 253    21     0     0     0.0   66.1   16634   49.8   16.3   3.5   6.3   8.5   7.2   3.9   0.4   0.8   0.8   0.0   0.0   0.1   0.5   1.3   0.8   0.8  1.56  0.93  0.78  0.00  0.00   12.03   19.69    0.00    0.00    0.00
 2000 254    22     0     0     0.0   66.7   16633   50.5   16.3   1.4   4.1   7.6   7.2   5.4   1.1   0.9   0.9   0.0   0.0   0.2   0.6   1.3   0.8   0.8  1.56  0.92  0.76  0.00  0.00   12.67   20.35    0.00    0.00    0.00
 2000 255    23     0     0     0.4   67.0   16633   50.3   16.6   1.6   4.1   7.4   7.0   5.3   1.2   0.9   0.9   0.0   0.0   0.1   0.7   1.4   0.8   0.8  1.58  0.92  0.75  0.00  0.00   13.30   20.60    0.00    0.00    0.00
 2000 256    24     0     0     0.6   67.4   16632   50.5   16.9   1.8   4.2   7.3   6.8   5.3   1.3   0.9   0.9   0.0   0.0   0.1   0.7   1.4   0.8   0.9  1.60  0.92  0.75  0.00  0.00   13.96   21.00    0.00    0.00    0.00
 2000 257    25     0     0     0.6   68.0   16631   50.9   17.1   1.2   3.7   7.0   6.8   5.6   1.5   1.0   0.9   0.0   0.0   0.1   0.6   1.5   0.9   0.9  1.61  0.93  0.74  0.00  0.00   14.56   21.38    0.00    0.00    0.00
 2000 258    26     0     0     0.7   68.4   16631   50.9   17.5   0.9   3.2   6.6   6.6   5.7   1.8   1.1   0.9   0.0   0.0   0.2   0.7   1.6   0.9   0.9  1.63  0.93  0.74  0.00  0.00   15.08   21.51    0.00    0.00    0.00
 2000 259    27     0     0     1.1   68.2   16631   50.4   17.8   0.9   3.2   6.4   6.3   5.6   1.9   1.2   1.0   0.0   0.0   0.2   0.8   1.6   0.9   0.9  1.64  0.94  0.74  0.00  0.00   15.53   21.62    0.22    0.00    0.00
 2000 260    28     0     0     1.4   68.2   16630   50.2   18.0   1.0   3.2   6.3   6.2   5.5   2.0   1.2   1.0   0.0   0.0   0.2   0.8   1.7   0.9   0.9  1.66  0.94  0.73  0.00  0.00   15.95   21.83    0.34    0.00    0.00
 2000 261    29     0     0     1.5   68.4   16630   50.2   18.1   1.2   3.2   6.3   6.1   5.5   2.0   1.2   1.0   0.0   0.0   0.1   0.8   1.7   0.9   0.9  1.67  0.94  0.73  0.00  0.00   16.35   22.12    0.41    0.00    0.00
 2000 262    30     0     0     1.5   68.7   16629   50.5   18.3   0.9   3.0   6.2   6.3   5.6   2.1   1.2   1.0   0.0   0.0   0.1   0.7   1.8   1.0   1.0  1.68  0.95  0.73  0.00  0.00   16.77   22.42    0.45    0.00    0.00
 2000 263    31     0     0     2.1   68.4   16629   49.9   18.6   0.4   2.0   5.0   5.5   5.6   2.8   1.7   1.2   0.0   0.0   0.2   0.8   1.8   1.0   1.0  1.70  0.95  0.72  0.00  0.00   17.23   22.56    0.59    0.00    0.00
 2000 264    32     0     0     2.3   68.5   16628   49.6   18.9   0.5   1.9   4.8   5.3   5.5   2.8   1.7   1.2   0.0   0.0   0.1   0.8   1.9   1.0   1.0  1.71  0.95  0.72  0.00  0.00   17.71   22.74    0.81    0.00    0.00
 2000 265    33     0     0     2.9   68.2   16628   49.0   19.2   0.6   1.9   4.7   5.1   5.4   2.8   1.8   1.3   0.0   0.0   0.1   0.9   2.0   1.0   1.0  1.73  0.96  0.72  0.00  0.00   18.24   22.93    1.02    0.00    0.00
 2000 266    34     0     0     3.2   68.2   16627   48.7   19.5   0.7   1.9   4.6   5.0   5.3   2.8   1.8   1.3   0.0   0.0   0.1   1.0   2.0   1.0   1.0  1.74  0.96  0.72  0.00  0.00   18.79   23.16    1.15    0.00    0.00
 2000 267    35     0     0     3.3   68.6   16627   49.0   19.6   0.8   2.1   4.6   5.0   5.2   2.9   1.8   1.3   0.0   0.0   0.1   0.9   2.1   1.1   1.0  1.75  0.97  0.72  0.00  0.00   19.35   23.59    1.22    0.00    0.00
 2000 268    36     0     0     3.5   68.9   16626   49.2   19.7   1.0   2.2   4.6   4.9   5.2   2.9   1.9   1.3   0.0   0.0   0.1   0.8   2.1   1.1   1.1  1.77  0.97  0.71  0.00  0.00   19.91   24.02    1.26    0.00    0.00
 2000 269    37     0     0     3.6   69.2   16626   49.6   19.6   1.1   2.3   4.8   4.9   5.2   2.9   1.9   1.3   0.0   0.0   0.1   0.7   2.0   1.1   1.1  1.78  0.97  0.71  0.00  0.00   20.43   24.62    1.29    0.00    0.00
 2000 270    38     0     0     3.6   69.6   16625   50.1   19.6   1.3   2.4   4.9   4.9   5.2   2.9   1.9   1.3   0.0   0.0   0.1   0.7   2.0   1.1   1.1  1.79  0.97  0.71  0.00  0.00   20.92   25.17    1.30    0.00    0.00
 2000 271    39     0     0     3.6   70.1   16625   50.6   19.5   1.4   2.5   5.0   5.0   5.2   2.9   1.9   1.3   0.0   0.0   0.1   0.7   1.9   1.1   1.1  1.81  0.97  0.70  0.00  0.00   21.40   25.70    1.31    0.00    0.00
 2000 272    40     0     0     3.6   70.5   16624   51.0   19.4   1.5   2.6   5.1   5.0   5.2   2.9   1.9   1.3   0.0   0.0   0.1   0.6   1.8   1.1   1.1  1.82  0.98  0.70  0.00  0.00   21.90   26.23    1.32    0.00    0.00
 2000 273    41     0     0     3.6   70.9   16624   51.6   19.3   1.7   2.7   5.2   5.0   5.2   2.9   1.9   1.3   0.0   0.0   0.1   0.6   1.8   1.1   1.1  1.83  0.98  0.69  0.00  0.00   22.42   26.87    1.33    0.00    0.00
 2000 274    42     0     0     3.6   71.3   16623   52.2   19.2   1.3   2.9   5.5   5.1   5.2   2.9   1.9   1.4   0.0   0.0   0.1   0.6   1.7   1.1   1.1  1.84  0.98  0.69  0.00  0.00   23.01   27.56    1.33    0.00    0.00
 2000 275    43     0     0     3.6   71.8   16622   52.7   19.2   1.5   2.9   5.6   5.2   5.2   2.9   1.9   1.4   0.0   0.0   0.1   0.7   1.6   1.0   1.1  1.86  0.98  0.68  0.00  0.00   23.65   28.19    1.34    0.00    0.00
 2000 276    44     0     0     3.7   72.3   16622   53.3   19.1   0.9   2.4   5.2   5.1   5.5   3.2   2.0   1.4   0.0   0.0   0.1   0.6   1.6   1.0   1.2  1.87  0.98  0.68  0.00  0.00   24.35   28.92    1.35    0.00    0.00
 2000 277    45     0     0     3.8   72.7   16621   53.2   19.6   0.7   2.2   5.0   5.0   5.4   3.3   2.2   1.5   0.0   0.0   0.2   0.7   1.7   1.1   1.2  1.89  0.98  0.68  0.00  0.00   25.01   29.09    1.44    0.00    0.00
 2000 278    46     0     0     4.4   72.5   16620   52.6   19.9   0.9   2.2   4.8   4.8   5.2   3.3   2.3   1.5   0.0   0.0   0.1   0.8   1.7   1.1   1.2  1.90  0.99  0.67  0.00  0.00   25.63   29.36    1.56    0.00    0.00
 2000 279    47     0     0     4.8   72.5   16620   52.3   20.2   1.0   2.2   4.8   4.7   5.1   3.3   2.3   1.6   0.0   0.0   0.1   0.9   1.8   1.1   1.2  1.92  0.99  0.67  0.00  0.00   26.23   29.62    1.62    0.00    0.00
 2000 280    48     0     0     5.1   72.6   16619   52.4   20.3   1.2   2.3   4.8   4.7   5.0   3.3   2.3   1.6   0.0   0.0   0.1   0.8   1.9   1.1   1.2  1.93  0.99  0.67  0.00  0.00   26.80   30.06    1.67    0.00    0.00
 2000 281    49     0     0     5.2   72.9   16619   52.7   20.2   1.4   2.4   4.9   4.7   5.0   3.3   2.3   1.6   0.0   0.0   0.1   0.7   1.8   1.1   1.2  1.94  0.99  0.66  0.00  0.00   27.35   30.66    1.70    0.00    0.00
 2000 282    50     0     0     5.2   73.2   16618   53.1   20.1   1.5   2.5   5.0   4.7   5.0   3.3   2.3   1.6   0.0   0.0   0.1   0.7   1.7   1.1   1.2  1.95  0.99  0.66  0.00  0.00   27.90   31.25    1.72    0.00    0.00
 2000 283    51     0     0     5.2   73.5   16618   53.5   20.0   1.0   2.5   5.1   4.8   5.1   3.3   2.3   1.7   0.0   0.0   0.1   0.6   1.7   1.2   1.2  1.96  0.99  0.65  0.00  0.00   28.47   31.85    1.73    0.00    0.00
 2000 284    52     0     0     5.5   73.6   16617   53.3   20.3   1.0   2.4   5.0   4.7   5.0   3.3   2.4   1.7   0.0   0.0   0.2   0.7   1.7   1.2   1.3  1.97  0.99  0.65  0.00  0.00   29.02   32.04    1.78    0.00    0.00
 2000 285    53     0     0     5.7   73.8   16616   53.3   20.5   1.2   2.4   4.9   4.6   5.0   3.3   2.4   1.7   0.0   0.0   0.1   0.8   1.8   1.2   1.3  1.98  0.99  0.65  0.00  0.00   29.58   32.34    1.81    0.00    0.00
 2000 286    54     0     0     5.7   74.0   16616   53.5   20.6   1.4   2.5   4.9   4.6   5.0   3.3   2.4   1.7   0.0   0.0   0.1   0.7   1.8   1.2   1.3  1.99  0.99  0.64  0.00  0.00   30.16   32.79    1.82    0.00    0.00
 2000 287    55     0     0     5.7   74.3   16615   53.9   20.4   1.6   2.6   5.0   4.6   5.0   3.3   2.4   1.8   0.0   0.0   0.1   0.7   1.8   1.2   1.3  1.99  0.99  0.64  0.00  0.00   30.76   33.45    1.83    0.00    0.00
 2000 288    56     0     0     5.7   74.6   16615   54.3   20.3   1.8   2.7   5.1   4.6   5.0   3.3   2.4   1.8   0.0   0.0   0.1   0.6   1.7   1.2   1.3  2.00  0.99  0.63  0.00  0.00   31.36   34.10    1.84    0.00    0.00
 2000 289    57     0     0     5.7   75.0   16614   54.8   20.2   2.0   2.8   5.2   4.6   5.0   3.3   2.4   1.8   0.0   0.0   0.1   0.6   1.6   1.2   1.3  2.01  0.99  0.63  0.00  0.00   31.96   34.73    1.85    0.00    0.00
 2000 290    58     0     0     5.7   75.5   16613   55.4   20.1   1.8   3.1   5.4   4.7   5.0   3.3   2.5   1.8   0.0   0.0   0.1   0.6   1.6   1.2   1.3  2.02  0.99  0.63  0.00  0.00   32.57   35.45    1.86    0.00    0.00
 2000 291    59     0     0     5.7   75.8   16613   55.8   20.0   1.9   3.0   5.5   4.7   5.0   3.3   2.5   1.8   0.0   0.0   0.1   0.7   1.5   1.1   1.3  2.03  0.99  0.62  0.00  0.00   33.19   36.05    1.86    0.00    0.00
 2000 292    60     0     0     5.7   76.1   16612   56.3   19.9   2.0   3.1   5.6   4.8   5.0   3.3   2.5   1.8   0.0   0.0   0.1   0.6   1.5   1.1   1.3  2.04  0.99  0.62  0.00  0.00   33.78   36.74    1.87    0.00    0.00
 2000 293    61     0     0     5.7   76.5   16612   56.8   19.7   1.5   3.2   5.8   4.9   5.0   3.4   2.5   1.8   0.0   0.0   0.1   0.6   1.4   1.1   1.3  2.05  0.99  0.62  0.00  0.00   34.37   37.40    1.87    0.00    0.00
 2000 294    62     0     0     5.9   76.6   16611   56.7   20.0   1.6   3.1   5.7   4.9   5.0   3.4   2.5   1.8   0.0   0.0   0.1   0.7   1.5   1.1   1.3  2.06  0.99  0.61  0.00  0.00   34.97   37.67    1.88    0.00    0.00
 2000 295    63     0     0     5.9   76.9   16610   56.7   20.2   1.8   3.1   5.6   4.9   5.0   3.4   2.5   1.8   0.0   0.0   0.1   0.7   1.6   1.1   1.3  2.06  0.99  0.61  0.00  0.00   35.59   37.97    1.89    0.00    0.00
 2000 296    64     0     0     6.0   76.7   16610   56.5   20.2   0.9   2.5   4.9   4.7   5.2   3.7   2.7   1.9   0.0   0.0   0.1   0.7   1.6   1.1   1.3  2.06  0.99  0.60  0.00  0.00   36.24   38.46    1.90    0.00    0.00
 2000 297    65     0     0     6.2   76.7   16609   56.2   20.6   0.9   2.4   4.8   4.6   5.1   3.7   2.8   2.0   0.0   0.0   0.2   0.8   1.7   1.1   1.3  2.08  0.99  0.60  0.00  0.00   36.87   38.63    2.01    0.00    0.00
 2000 298    66     0     0     6.9   76.1   16609   55.2   20.8   1.1   2.4   4.6   4.5   4.9   3.6   2.8   2.0   0.0   0.0   0.1   0.8   1.7   1.1   1.3  2.09  0.99  0.60  0.00  0.00   37.49   38.91    2.20    0.00    0.00
 2000 299    67     0     0     8.7   74.4   16608   53.5   20.9   0.5   1.7   3.7   3.9   4.6   3.9   3.1   2.4   0.0   0.0   0.1   0.7   1.8   1.1   1.4  2.09  1.00  0.59  0.00  0.00   38.11   39.36    2.32    0.00    0.00
 2000 300    68     0     0     9.7   73.0   16607   52.0   21.0   0.4   1.4   3.3   3.7   4.4   3.9   3.2   2.5   0.0   0.0   0.1   0.8   1.8   1.2   1.4  2.10  1.00  0.59  0.00  0.00   38.70   39.57    2.53    0.00    0.00
 2000 301    69     0     0    10.8   71.5   16607   50.4   21.2   0.5   1.3   3.1   3.5   4.2   3.7   3.2   2.5   0.0   0.0   0.1   0.8   1.8   1.2   1.4  2.10  1.00  0.59  0.00  0.00   39.28   39.78    2.74    0.00    0.00
 2000 302    70     0     0    11.5   69.9   16606   48.9   21.0   0.7   1.2   2.9   3.4   4.1   3.6   3.1   2.5   0.0   0.0   0.1   0.8   1.8   1.2   1.4  2.09  0.99  0.59  0.00  0.00   39.89   40.06    2.85    0.00    0.00
 2000 303    71     0     0    11.8   68.9   16606   48.2   20.7   0.8   1.3   2.8   3.3   4.0   3.6   3.1   2.5   0.0   0.0   0.1   0.7   1.8   1.2   1.4  2.08  0.99  0.59  0.00  0.00   40.52   40.53    2.90    0.00    0.00
 2000 304    72     0     0    12.0   68.2   16605   47.9   20.3   0.9   1.4   2.8   3.3   3.9   3.5   3.0   2.5   0.0   0.0   0.1   0.6   1.6   1.2   1.3  2.07  0.98  0.58  0.00  0.00   41.13   41.19    2.93    0.00    0.00
 2000 305    73     0     0    12.0   66.9   16604   47.3   19.7   1.1   1.4   2.7   3.2   3.9   3.5   3.0   2.4   0.0   0.0   0.1   0.5   1.4   1.1   1.3  2.04  0.97  0.57  0.00  0.00   41.77   41.84    2.94    0.00    0.00
 2000 306    74     0     0    12.0   65.5   16604   46.6   18.9   0.9   1.6   2.7   3.2   3.8   3.4   3.0   2.4   0.0   0.0   0.1   0.5   1.3   1.1   1.3  2.01  0.95  0.57  0.00  0.00   42.42   42.57    2.94    0.00    0.00
 2000 307    75     0     0    12.0   65.1   16603   46.4   18.8   0.9   1.5   2.7   3.2   3.7   3.4   3.0   2.4   0.0   0.0   0.2   0.6   1.2   1.0   1.3  1.99  0.95  0.56  0.00  0.00   43.07   43.06    2.95    0.00    0.00
 2000 308    76     0     0    12.0   63.9   16602   45.8   18.1   1.1   1.4   2.6   3.2   3.7   3.3   2.9   2.4   0.0   0.0   0.1   0.7   1.1   0.9   1.2  1.96  0.93  0.55  0.00  0.00   43.73   43.78    2.95    0.00    0.00
 2000 309    77     0     0    12.0   62.2   16602   44.9   17.2   1.2   1.5   2.4   3.1   3.7   3.2   2.9   2.4   0.0   0.0   0.1   0.5   1.0   0.9   1.1  1.90  0.92  0.55  0.00  0.00   44.41   44.64    2.95    0.00    0.00
 2000 310    78     0     0    12.0   60.9   16601   44.3   16.5   1.3   1.5   2.3   3.1   3.6   3.2   2.8   2.4   0.0   0.0   0.1   0.5   0.9   0.8   1.0  1.86  0.90  0.54  0.00  0.00   45.07   45.39    2.95    0.00    0.00
 2000 311    79     0     0    12.0   58.7   16600   43.0   15.7   1.4   1.4   2.1   3.0   3.5   3.1   2.8   2.3   0.0   0.0   0.1   0.5   0.8   0.7   1.0  1.78  0.86  0.53  0.00  0.00   45.71   46.13    2.95    0.00    0.00
 2000 312    80     0     0    12.0   56.2   16600   41.4   14.8   1.5   1.4   1.9   2.8   3.4   3.0   2.7   2.3   0.0   0.0   0.1   0.5   0.7   0.7   0.9  1.70  0.81  0.51  0.00  0.00   46.35   46.84    2.95    0.00    0.00
 2000 313    81     0     0    12.0   54.8   16599   40.6   14.2   1.6   1.4   1.8   2.8   3.3   2.9   2.7   2.3   0.0   0.0   0.1   0.5   0.7   0.6   0.8  1.65  0.78  0.50  0.00  0.00   47.01   47.53    2.95    0.00    0.00
 2000 314    82     0     0    12.0   52.6   16598   39.1   13.5   1.6   1.4   1.6   2.7   3.2   2.8   2.6   2.3   0.0   0.0   0.1   0.5   0.6   0.6   0.8  1.57  0.74  0.48  0.00  0.00   47.66   48.21    2.95    0.00    0.00
 2000 315    83     0     0    12.0   51.6   16598   38.5   13.1   1.7   1.4   1.5   2.6   3.1   2.7   2.6   2.3   0.0   0.0   0.1   0.5   0.6   0.6   0.7  1.53  0.71  0.47  0.00  0.00   48.31   48.85    2.95    0.00    0.00
 2000 316    84     0     0    12.0   48.5   16597   36.3   12.2   1.0   1.5   1.4   2.4   2.9   2.6   2.5   2.2   0.0   0.0   0.1   0.5   0.6   0.5   0.6  1.42  0.66  0.46  0.00  0.00   48.95   49.48    2.95    0.00    0.00
 2000 317    85     0     0    12.0   45.3   16596   33.7   11.6   0.9   1.3   1.1   2.2   2.7   2.4   2.4   2.2   0.0   0.0   0.1   0.6   0.6   0.5   0.6  1.32  0.61  0.45  0.00  0.00   49.60   49.95    2.95    0.00    0.00
 2000 318    86     0     0    12.0   42.0   16596   31.1   10.9   0.9   1.0   0.8   2.1   2.5   2.2   2.2   2.1   0.0   0.0   0.1   0.5   0.6   0.5   0.5  1.23  0.57  0.44  0.00  0.00   50.27   50.56    2.95    0.00    0.00
 2000 319    87     0     0    12.0   39.1   16595   28.8   10.3   0.9   0.8   0.6   1.9   2.3   2.1   2.1   2.1   0.0   0.0   0.1   0.5   0.6   0.5   0.5  1.14  0.53  0.43  0.00  0.00   50.93   51.12    2.95    0.00    0.00
 2000 320    88     0     0    12.0   37.0   16594   27.1    9.9   0.9   0.7   0.5   1.7   2.1   2.0   2.0   2.0   0.0   0.0   0.1   0.5   0.6   0.5   0.5  1.06  0.49  0.42  0.00  0.00   51.56   51.66    2.95    0.00    0.00
 2000 321    89     0     0    12.0   35.0   16594   25.4    9.6   1.0   0.6   0.5   1.6   2.0   1.8   1.9   2.0   0.0   0.0   0.1   0.5   0.6   0.5   0.5  0.98  0.49  0.41  0.00  0.00   52.16   52.15    2.95    0.00    0.00
 2000 322    90     0     0    12.0   31.5   16593   22.5    9.0   0.9   0.5   0.5   1.3   1.7   1.6   1.7   1.9   0.0   0.0   0.1   0.5   0.6   0.5   0.5  0.84  0.49  0.40  0.00  0.00   52.74   52.62    2.95    0.00    0.00
 2000 323    91     0     0    12.0   28.0   16593   19.6    8.4   0.9   0.6   0.3   1.1   1.4   1.3   1.5   1.7   0.0   0.0   0.1   0.5   0.6   0.5   0.5  0.72  0.48  0.39  0.00  0.00   53.31   53.09    2.95    0.00    0.00
 2000 324    92     0     0    12.0   25.2   16592   17.2    8.0   0.9   0.5   0.4   0.9   1.2   1.1   1.3   1.6   0.0   0.0   0.1   0.5   0.6   0.5   0.5  0.61  0.48  0.38  0.00  0.00   53.90   53.58    2.95    0.00    0.00
 2000 325    93     0     0    12.0   22.9   16592   15.3    7.6   0.8   0.6   0.4   0.8   1.0   0.9   1.2   1.5   0.0   0.0   0.1   0.5   0.6   0.5   0.5  0.52  0.48  0.37  0.00  0.00   54.55   54.11    2.95    0.00    0.00
 2000 326    94     0     0    12.0   21.0   16591   13.6    7.5   0.8   0.6   0.5   0.6   0.8   0.8   1.0   1.4   0.0   0.0   0.1   0.4   0.5   0.5   0.5  0.52  0.47  0.37  0.00  0.00   55.20   54.67    2.95    0.00    0.00
 2000 327    95     0     0    12.0   19.5   16590   12.1    7.4   0.8   0.5   0.6   0.5   0.7   0.6   0.9   1.3   0.0   0.0   0.1   0.4   0.5   0.5   0.5  0.52  0.47  0.36  0.00  0.00   55.85   55.23    2.95    0.00    0.00
 2000 328    96     0     0    12.0   17.9   16590   10.6    7.3   0.3   0.5   0.5   0.6   0.6   0.5   0.8   1.2   0.0   0.0   0.1   0.4   0.5   0.5   0.5  0.52  0.46  0.35  0.00  0.00   56.48   55.78    2.95    0.00    0.00
 2000 329    97     0     0    12.0   16.7   16589    9.0    7.7   0.4   0.5   0.3   0.5   0.5   0.4   0.7   1.1   0.0   0.0   0.1   0.5   0.6   0.5   0.5  0.52  0.46  0.34  0.00  0.00   57.26   56.07    2.95    0.00    0.00
 2000 330    98     0     0    12.0   16.5   16588    8.9    7.6   0.6   0.6   0.3   0.5   0.5   0.4   0.6   1.0   0.0   0.0   0.1   0.5   0.6   0.5   0.5  0.52  0.46  0.34  0.00  0.00   57.99   56.52    2.95    0.00    0.00
 2000 331    99     0     0    12.0   15.4   16587    8.0    7.5   0.4   0.4   0.4   0.5   0.3   0.4   0.5   0.9   0.0   0.0   0.1   0.5   0.6   0.5   0.5  0.52  0.45  0.33  0.00  0.00   58.74   57.06    2.95    0.00    0.00
 2000 332   100     0     0    12.0   15.7   16587    8.3    7.4   0.6   0.5   0.4   0.5   0.4   0.4   0.5   0.8   0.0   0.0   0.1   0.5   0.6   0.5   0.5  0.52  0.45  0.32  0.00  0.00   59.48   57.65    2.95    0.00    0.00
 2000 333   101     0     0    12.0   15.1   16586    7.8    7.4   0.5   0.4   0.5   0.3   0.4   0.4   0.5   0.8   0.0   0.0   0.1   0.5   0.6   0.5   0.5  0.52  0.45  0.32  0.00  0.00   60.21   58.22    2.95    0.00    0.00
 2000 334   102     0     0    12.0   15.1   16585    7.7    7.4   0.4   0.5   0.6   0.3   0.4   0.5   0.4   0.7   0.0   0.0   0.1   0.5   0.6   0.5   0.5  0.51  0.45  0.31  0.00  0.00   60.90   58.74    2.95    0.00    0.00
 2000 335   103     0     0    12.0   14.6   16585    7.3    7.3   0.6   0.4   0.3   0.4   0.5   0.5   0.4   0.6   0.0   0.0   0.1   0.5   0.6   0.5   0.5  0.51  0.44  0.30  0.00  0.00   61.57   59.26    2.95    0.00    0.00
 2000 336   104     0     0    12.0   14.8   16584    7.5    7.3   0.5   0.5   0.4   0.4   0.5   0.5   0.5   0.6   0.0   0.0   0.1   0.5   0.6   0.5   0.5  0.51  0.44  0.30  0.00  0.00   62.23   59.78    2.95    0.00    0.00
 2000 337   105     0     0    12.0   15.1   16583    7.8    7.3   0.5   0.6   0.4   0.4   0.5   0.5   0.5   0.5   0.0   0.0   0.1   0.5   0.6   0.5   0.5  0.51  0.44  0.29  0.00  0.00   62.86   60.26    2.95    0.00    0.00
 2000 338   106     0     0    12.0   14.6   16583    7.3    7.2   0.4   0.5   0.5   0.5   0.4   0.5   0.5   0.5   0.0   0.0   0.1   0.4   0.6   0.5   0.5  0.51  0.44  0.29  0.00  0.00   63.47   60.75    2.95    0.00    0.00
 2000 339   107     0     0    12.0   15.1   16582    7.8    7.2   0.5   0.6   0.5   0.5   0.4   0.5   0.5   0.5   0.0   0.0   0.1   0.5   0.6   0.5   0.5  0.51  0.43  0.28  0.00  0.00   64.14   61.26    2.95    0.00    0.00
 2000 340   108     0     0    12.0   14.2   16582    7.0    7.2   0.4   0.4   0.3   0.3   0.4   0.5   0.5   0.5   0.0   0.0   0.1   0.5   0.6   0.5   0.5  0.51  0.43  0.28  0.00  0.00   64.82   61.79    2.95    0.00    0.00
 2000 341   109     0     0    12.0   14.5   16581    7.3    7.2   0.5   0.5   0.4   0.4   0.4   0.5   0.4   0.5   0.0   0.0   0.1   0.5   0.5   0.5   0.5  0.51  0.43  0.27  0.00  0.00   65.49   62.32    2.95    0.00    0.00
 2000 342   110     0     0    12.0   14.9   16580    7.8    7.2   0.6   0.6   0.4   0.4   0.5   0.5   0.4   0.5   0.0   0.0   0.1   0.5   0.5   0.5   0.5  0.51  0.43  0.27  0.00  0.00   66.15   62.87    2.95    0.00    0.00
 2000 343   111     0     0    12.0   14.8   16580    7.7    7.1   0.7   0.4   0.5   0.5   0.5   0.5   0.5   0.5   0.0   0.0   0.1   0.4   0.5   0.5   0.5  0.51  0.43  0.26  0.00  0.00   66.80   63.43    2.95    0.00    0.00
 2000 344   112     0     0    12.0   15.3   16579    8.3    7.0   0.4   0.6   0.6   0.5   0.5   0.5   0.5   0.5   0.0   0.0   0.1   0.4   0.5   0.5   0.5  0.51  0.42  0.26  0.00  0.00   67.45   63.99    2.95    0.00    0.00
 2000 345   113     0     0    12.0   14.1   16578    6.9    7.3   0.5   0.3   0.3   0.6   0.4   0.4   0.5   0.5   0.0   0.0   0.1   0.6   0.6   0.5   0.5  0.52  0.42  0.25  0.00  0.00   68.26   64.45    2.95    0.00    0.00
 2000 346   114     0     0    12.0   14.3   16577    7.1    7.1   0.5   0.5   0.4   0.4   0.4   0.4   0.5   0.5   0.0   0.0   0.1   0.5   0.6   0.5   0.5  0.52  0.42  0.25  0.00  0.00   69.10   65.21    2.95    0.00    0.00
 2000 347   115     0     0    12.0   14.9   16577    7.8    7.1   0.6   0.7   0.5   0.5   0.5   0.4   0.5   0.5   0.0   0.0   0.1   0.4   0.6   0.5   0.5  0.52  0.42  0.25  0.00  0.00   69.93   65.88    2.95    0.00    0.00
 2000 348   116     0     0    12.0   14.9   16576    7.9    7.0   0.1   0.2   0.6   0.6   0.6   0.4   0.5   0.5   0.0   0.0   0.1   0.4   0.6   0.5   0.5  0.52  0.42  0.24  0.00  0.00   70.74   66.58    2.95    0.00    0.00
 2000 349   117     0     0    12.0   14.5   16575    6.9    7.5   0.3   0.3   0.3   0.5   0.5   0.5   0.4   0.5   0.0   0.0   0.1   0.6   0.6   0.5   0.5  0.52  0.42  0.24  0.00  0.00   71.62   66.83    2.95    0.00    0.00
 2000 350   118     0     0    12.0   14.3   16574    7.0    7.3   0.5   0.5   0.3   0.5   0.3   0.5   0.4   0.5   0.0   0.0   0.1   0.4   0.6   0.5   0.5  0.52  0.41  0.24  0.00  0.00   72.50   67.38    2.95    0.00    0.00
 2000 351   119     0     0    12.0   14.4   16573    7.1    7.3   0.6   0.3   0.4   0.5   0.3   0.5   0.5   0.5   0.0   0.0   0.1   0.6   0.6   0.5   0.5  0.52  0.41  0.23  0.00  0.00   73.38   67.78    2.95    0.00    0.00
 2000 352   120     0     0    12.0   14.7   16573    7.5    7.2   0.5   0.5   0.5   0.5   0.4   0.5   0.5   0.5   0.0   0.0   0.1   0.5   0.6   0.5   0.5  0.52  0.41  0.23  0.00  0.00   74.23   68.39    2.95    0.00    0.00
 2000 353   121     0     0    12.0   14.7   16572    7.6    7.1   0.6   0.6   0.5   0.3   0.4   0.5   0.5   0.5   0.0   0.0   0.1   0.5   0.6   0.5   0.5  0.52  0.41  0.23  0.00  0.00   75.04   69.00    2.95    0.00    0.00
 2000 354   122     0     0    12.0   14.2   16571    7.2    7.1   0.5   0.4   0.3   0.3   0.4   0.5   0.5   0.5   0.0   0.0   0.1   0.5   0.6   0.5   0.5  0.52  0.41  0.22  0.00  0.00   75.82   69.60    2.95    0.00    0.00
 2000 355   123     0     0    12.0   14.7   16570    7.6    7.1   0.5   0.5   0.4   0.4   0.5   0.5   0.5   0.5   0.0   0.0   0.1   0.5   0.6   0.5   0.5  0.52  0.40  0.22  0.00  0.00   76.58   70.16    2.95    0.00    0.00
 2000 356   124     0     0    12.0   13.7   16570    6.7    7.0   0.6   0.4   0.5   0.4   0.5   0.3   0.4   0.5   0.0   0.0   0.1   0.5   0.6   0.5   0.5  0.52  0.40  0.22  0.00  0.00   77.33   70.73    2.95    0.00    0.00
 2000 357   125     0     0    12.0   14.1   16569    7.1    7.0   0.4   0.5   0.5   0.5   0.5   0.3   0.4   0.5   0.0   0.0   0.1   0.5   0.6   0.5   0.5  0.52  0.40  0.21  0.00  0.00   78.08   71.30    2.95    0.00    0.00
 2000 358   126     0     0    12.0   13.2   16568    6.2    7.0   0.6   0.4   0.3   0.5   0.3   0.3   0.5   0.5   0.0   0.0   0.1   0.4   0.6   0.5   0.5  0.52  0.40  0.21  0.00  0.00   78.84   71.89    2.95    0.00    0.00
 2000 359   127     0     0    12.0   13.6   16567    6.6    7.0   0.4   0.5   0.4   0.5   0.3   0.3   0.5   0.5   0.0   0.0   0.1   0.4   0.6   0.5   0.5  0.52  0.40  0.21  0.00  0.00   79.56   72.43    2.95    0.00    0.00
 2000 360   128     0     0    12.0   13.2   16567    6.3    6.9   0.5   0.4   0.4   0.3   0.3   0.3   0.5   0.5   0.0   0.0   0.1   0.4   0.6   0.5   0.5  0.52  0.40  0.21  0.00  0.00   80.25   72.97    2.95    0.00    0.00
 2000 361   129     0     0    12.0   13.7   16566    6.7    6.9   0.2   0.5   0.6   0.4   0.4   0.3   0.5   0.5   0.0   0.0   0.1   0.4   0.6   0.5   0.5  0.52  0.40  0.21  0.00  0.00   80.93   73.51    2.95    0.00    0.00
 2000 362   130     0     0    12.0   13.7   16565    6.5    7.2   0.3   0.5   0.2   0.4   0.4   0.3   0.5   0.5   0.0   0.0   0.1   0.6   0.6   0.5   0.5  0.52  0.40  0.20  0.00  0.00   81.76   73.87    2.95    0.00    0.00
 2000 363   131     0     0    12.0   14.2   16565    6.7    7.5   0.3   0.5   0.3   0.4   0.5   0.4   0.5   0.5   0.0   0.0   0.3   0.6   0.6   0.5   0.5  0.52  0.39  0.20  0.00  0.00   82.57   74.05    2.95    0.00    0.00
 2000 364   132     0     0    12.0   14.2   16564    6.9    7.3   0.7   0.5   0.3   0.4   0.5   0.4   0.4   0.5   0.0   0.0   0.0   0.6   0.6   0.5   0.5  0.52  0.39  0.20  0.00  0.00   83.42   74.49    2.95    0.00    0.00
 2000 365   133     0     0    12.0   13.9   16563    6.5    7.4   0.2   0.3   0.3   0.4   0.5   0.4   0.4   0.5   0.0   0.0   0.2   0.6   0.6   0.5   0.5  0.52  0.39  0.20  0.00  0.00   84.26   74.69    2.95    0.00    0.00
 2000 366   134     0     0    12.0   14.0   16562    7.1    7.0   0.5   0.5   0.4   0.5   0.5   0.4   0.5   0.5   0.0   0.0   0.1   0.5   0.6   0.5   0.5  0.52  0.39  0.19  0.00  0.00   85.07   75.37    2.95    0.00    0.00
 2001 001   135     0     0    12.0   13.9   16562    7.0    7.0   0.4   0.6   0.4   0.5   0.3   0.4   0.5   0.5   0.0   0.0   0.1   0.5   0.6   0.5   0.5  0.52  0.39  0.19  0.00  0.00   85.85   75.92    2.95    0.00    0.00
 2001 002   136     0     0    12.0   14.1   16561    7.1    7.0   0.6   0.4   0.5   0.5   0.3   0.4   0.5   0.5   0.0   0.0   0.1   0.5   0.6   0.5   0.5  0.52  0.39  0.19  0.00  0.00   86.63   76.53    2.95    0.00    0.00
 2001 003   137     0     0    12.0   13.6   16560    6.6    6.9   0.5   0.6   0.3   0.3   0.4   0.4   0.5   0.5   0.0   0.0   0.1   0.5   0.6   0.5   0.5  0.52  0.39  0.19  0.00  0.00   87.43   77.13    2.95    0.00    0.00
 2001 004   138     0     0    12.0   13.8   16559    6.9    6.9   0.5   0.5   0.4   0.3   0.4   0.4   0.5   0.5   0.0   0.0   0.1   0.4   0.6   0.5   0.5  0.52  0.39  0.19  0.00  0.00   88.25   77.79    2.95    0.00    0.00
 2001 005   139     0     0    12.0   14.5   16558    7.6    6.9   0.6   0.7   0.5   0.4   0.4   0.4   0.5   0.5   0.0   0.0   0.1   0.4   0.6   0.5   0.5  0.52  0.39  0.19  0.00  0.00   89.15   78.46    2.95    0.00    0.00
 2001 006   140     0     0    12.0   14.3   16558    7.4    6.9   0.5   0.4   0.6   0.4   0.5   0.4   0.4   0.5   0.0   0.0   0.1   0.4   0.6   0.5   0.5  0.52  0.38  0.18  0.00  0.00   90.04   79.20    2.95    0.00    0.00
 2001 007   141     0     0    12.0   14.3   16557    7.4    6.9   0.0   0.6   0.4   0.6   0.6   0.4   0.4   0.5   0.0   0.0   0.1   0.4   0.6   0.5   0.5  0.52  0.38  0.18  0.00  0.00   90.94   79.89    2.95    0.00    0.00
 2001 008   142     0     0    12.0   14.1   16556    6.7    7.4   0.1   0.3   0.4   0.5   0.4   0.5   0.5   0.5   0.0   0.0   0.3   0.6   0.6   0.6   0.5  0.52  0.38  0.18  0.00  0.00   91.86   80.09    2.95    0.00    0.00
 2001 009   143     0     0    12.0   14.4   16555    7.1    7.3   0.5   0.3   0.4   0.5   0.4   0.5   0.5   0.5   0.0   0.0   0.0   0.6   0.6   0.5   0.5  0.52  0.38  0.18  0.00  0.00   92.77   80.56    2.95    0.00    0.00
 2001 010   144     0     0    12.0   14.5   16554    7.1    7.4   0.1   0.3   0.4   0.4   0.4   0.5   0.5   0.5   0.0   0.0   0.2   0.6   0.6   0.5   0.5  0.52  0.38  0.18  0.00  0.00   93.66   80.71    2.95    0.00    0.00
 2001 011   145     0     0    12.1   14.3   16553    6.9    7.5   0.1   0.4   0.4   0.4   0.4   0.5   0.4   0.5   0.0   0.0   0.3   0.6   0.6   0.5   0.5  0.52  0.39  0.18  0.00  0.00   94.48   80.85    2.95    0.00    0.00
 2001 012   146     0     0    12.2   14.2   16553    6.9    7.3   0.5   0.4   0.4   0.4   0.4   0.5   0.4   0.4   0.0   0.0   0.0   0.6   0.6   0.5   0.5  0.52  0.40  0.18  0.00  0.00   95.28   81.22    2.96    0.00    0.00
 2001 013   147     0     0    12.2   14.3   16552    7.2    7.1   0.3   0.6   0.5   0.4   0.4   0.5   0.4   0.4   0.0   0.0   0.1   0.5   0.6   0.5   0.5  0.52  0.40  0.18  0.00  0.00   96.05   81.67    2.96    0.00    0.00
 2001 014   148     0     0    12.2   14.3   16551    7.3    7.1   0.4   0.3   0.6   0.5   0.4   0.5   0.4   0.4   0.0   0.0   0.1   0.5   0.6   0.5   0.5  0.52  0.41  0.18  0.00  0.00   96.81   82.10    2.96    0.00    0.00
 2001 015   149     0     0    12.2   14.2   16551    6.8    7.4   0.5   0.3   0.3   0.5   0.5   0.5   0.4   0.4   0.0   0.0   0.1   0.6   0.6   0.5   0.5  0.52  0.42  0.18  0.00  0.00   97.57   82.27    2.97    0.00    0.00
 2001 016   150     0     0    12.2   14.3   16550    6.9    7.4   0.4   0.4   0.3   0.5   0.5   0.5   0.4   0.4   0.0   0.0   0.1   0.6   0.6   0.5   0.5  0.52  0.42  0.19  0.00  0.00   98.37   82.51    2.97    0.00    0.00
 2001 017   151     0     0    12.2   14.6   16549    7.5    7.1   0.6   0.6   0.3   0.5   0.5   0.5   0.4   0.4   0.0   0.0   0.1   0.5   0.6   0.5   0.5  0.52  0.43  0.19  0.00  0.00   99.20   83.11    2.97    0.00    0.00
 2001 018   152     0     0    12.2   14.6   16548    7.5    7.1   0.4   0.4   0.4   0.5   0.5   0.5   0.5   0.4   0.0   0.0   0.1   0.5   0.6   0.5   0.5  0.52  0.43  0.19  0.00  0.00  100.05   83.68    2.97    0.00    0.00
 2001 019   153     0     0    12.2   14.9   16548    7.8    7.0   0.6   0.6   0.5   0.6   0.4   0.5   0.5   0.5   0.0   0.0   0.1   0.5   0.6   0.5   0.5  0.52  0.43  0.19  0.00  0.00  100.89   84.31    2.97    0.00    0.00
 2001 020   154     0     0    12.2   14.6   16547    7.6    7.0   0.5   0.4   0.6   0.4   0.5   0.5   0.5   0.5   0.0   0.0   0.1   0.5   0.6   0.5   0.5  0.52  0.43  0.18  0.00  0.00  101.70   84.92    2.97    0.00    0.00
 2001 021   155     0     0    12.2   14.7   16546    7.6    7.0   0.6   0.5   0.3   0.5   0.5   0.5   0.5   0.5   0.0   0.0   0.1   0.5   0.6   0.5   0.5  0.52  0.43  0.18  0.00  0.00  102.50   85.52    2.97    0.00    0.00
 2001 022   156     0     0    12.2   14.8   16545    7.8    7.0   0.5   0.4   0.4   0.5   0.5   0.5   0.5   0.5   0.0   0.0   0.1   0.5   0.6   0.5   0.5  0.52  0.43  0.18  0.00  0.00  103.28   86.10    2.97    0.00    0.00
 2001 023   157     0     0    12.2   14.6   16545    7.6    7.0   0.6   0.5   0.5   0.5   0.4   0.4   0.5   0.5   0.0   0.0   0.1   0.5   0.6   0.5   0.5  0.52  0.43  0.18  0.00  0.00  104.05   86.67    2.97    0.00    0.00
 2001 024   158     0     0    12.2   13.9   16544    6.9    7.0   0.6   0.4   0.5   0.3   0.5   0.4   0.4   0.5   0.0   0.0   0.1   0.5   0.6   0.5   0.5  0.52  0.42  0.18  0.00  0.00  104.83   87.27    2.97    0.00    0.00
 2001 025   159     0     0    12.2   13.9   16543    7.0    7.0   0.6   0.6   0.3   0.3   0.5   0.4   0.4   0.5   0.0   0.0   0.1   0.4   0.6   0.5   0.5  0.52  0.42  0.18  0.00  0.00  105.62   87.90    2.97    0.00    0.00
 2001 026   160     0     0    12.2   14.1   16542    7.2    6.9   0.7   0.4   0.4   0.4   0.5   0.4   0.4   0.5   0.0   0.0   0.1   0.4   0.6   0.5   0.5  0.52  0.42  0.18  0.00  0.00  106.42   88.55    2.97    0.00    0.00
 2001 027   161     0     0    12.2   14.1   16542    7.2    6.9   0.2   0.7   0.5   0.4   0.4   0.4   0.4   0.5   0.0   0.0   0.1   0.4   0.6   0.5   0.5  0.52  0.42  0.18  0.00  0.00  107.27   89.21    2.97    0.00    0.00
 2001 028   162     0     0    12.2   14.7   16541    7.6    7.1   0.4   0.5   0.6   0.5   0.4   0.5   0.4   0.5   0.0   0.0   0.1   0.5   0.6   0.5   0.5  0.52  0.42  0.18  0.00  0.00  108.16   89.76    2.97    0.00    0.00
 2001 029   163     0     0    12.2   15.0   16540    8.0    7.0   0.6   0.6   0.6   0.5   0.4   0.5   0.4   0.5   0.0   0.0   0.1   0.5   0.6   0.5   0.5  0.52  0.42  0.18  0.00  0.00  109.02   90.44    2.97    0.00    0.00
 2001 030   164     0     0    12.2   14.1   16539    7.1    7.0   0.5   0.4   0.3   0.4   0.5   0.5   0.5   0.5   0.0   0.0   0.1   0.5   0.6   0.5   0.5  0.52  0.42  0.17  0.00  0.00  109.85   91.09    2.97    0.00    0.00
 2001 031   165     0     0    12.2   14.7   16539    7.7    7.0   0.6   0.6   0.4   0.5   0.5   0.5   0.5   0.5   0.0   0.0   0.1   0.5   0.6   0.5   0.5  0.52  0.42  0.17  0.00  0.00  110.63   91.68    2.97    0.00    0.00
 2001 032   166     0     0    12.2   14.9   16538    8.0    6.9   0.7   0.5   0.5   0.5   0.5   0.5   0.5   0.5   0.0   0.0   0.1   0.5   0.6   0.5   0.5  0.52  0.42  0.17  0.00  0.00  111.38   92.26    2.97    0.00    0.00
 2001 033   167     0     0    12.2   15.5   16537    8.5    7.0   0.9   0.6   0.5   0.5   0.6   0.5   0.5   0.5   0.0   0.0   0.1   0.5   0.6   0.5   0.5  0.52  0.42  0.17  0.00  0.00  112.13   92.85    2.97    0.00    0.00
 2001 034   168     0     0    12.2   16.1   16536    9.0    7.0   1.0   0.8   0.6   0.6   0.6   0.5   0.5   0.5   0.0   0.0   0.1   0.4   0.6   0.5   0.5  0.53  0.41  0.17  0.00  0.00  112.92   93.49    2.97    0.00    0.00
 2001 035   169     0     0    12.2   16.7   16536    9.6    7.1   1.1   0.9   0.7   0.6   0.6   0.5   0.5   0.5   0.0   0.0   0.1   0.4   0.6   0.5   0.5  0.54  0.41  0.17  0.00  0.00  113.71   94.13    2.97    0.00    0.00
 2001 036   170     0     0    12.2   17.5   16535   10.3    7.3   0.7   1.2   0.9   0.7   0.7   0.5   0.5   0.5   0.0   0.0   0.1   0.4   0.7   0.5   0.5  0.56  0.41  0.17  0.00  0.00  114.50   94.79    2.97    0.00    0.00
 2001 037   171     0     0    12.2   18.4   16534   10.8    7.7   0.8   1.2   1.0   0.7   0.7   0.5   0.5   0.5   0.0   0.0   0.1   0.6   0.8   0.5   0.5  0.58  0.41  0.17  0.00  0.00  115.40   95.29    2.97    0.00    0.00
 2001 038   172     0     0    12.2   19.4   16533   11.6    7.8   1.0   1.4   1.1   0.8   0.7   0.5   0.6   0.5   0.0   0.0   0.1   0.5   0.8   0.5   0.5  0.59  0.41  0.17  0.00  0.00  116.33   96.08    2.97    0.00    0.00
 2001 039   173     0     0    12.2   20.3   16533   12.3    8.0   0.6   1.3   1.4   1.0   0.8   0.5   0.6   0.5   0.0   0.0   0.1   0.5   0.9   0.5   0.5  0.61  0.41  0.17  0.00  0.00  117.27   96.85    2.97    0.00    0.00

*DSSAT Cropping System Model Ver. 4.0.2.000               Aug 23, 2016; 16:35:33

*RUN   3        : UYSB                    
 MODEL          : CRGRO040 - Soybean         
 EXPERIMENT     : UYSB0221 SB    late to create DSS                             
 TREATMENT  1   : UYSB                    

@YEAR DOY   DAS  NAPC  NI#M    NLCC   NIAD    NOAD   NITD   NHTD  NI1D  NI2D  NI3D  NI4D  NI5D  NI6D  NI7D  NI8D  NI9D  NI10  NH1D  NH2D  NH3D  NH4D  NH5D  NH6D  NH7D  NH8D  NH9D  NH10    NMNC    NITC    NDNC    NIMC    AMLC
 2001 232     0     0     0     0.0   54.7   16646   31.9   22.9   5.9   5.2   5.1   4.7   2.6   0.0   0.1   0.1   0.0   0.0   0.6   1.3   1.5   1.4   1.5  1.50  1.47  1.45  0.00  0.00    0.50    1.58    0.00    0.00    0.00
 2001 233     1     0     0     0.0   55.2   16645   33.1   22.1   6.3   5.5   5.2   4.8   2.6   0.0   0.1   0.1   0.0   0.0   0.3   1.2   1.4   1.4   1.4  1.51  1.43  1.41  0.00  0.00    1.00    2.81    0.00    0.00    0.00
 2001 234     2     0     0     0.0   55.7   16645   34.1   21.6   6.5   5.6   5.3   4.9   2.7   0.1   0.1   0.2   0.0   0.0   0.2   1.1   1.4   1.3   1.4  1.51  1.40  1.37  0.00  0.00    1.49    3.87    0.00    0.00    0.00
[...]
 2013 311    79     0     0    15.8   51.5   16599   37.0   14.5   1.0   0.8   1.0   2.1   2.8   2.9   2.8   2.5   0.0   0.0   0.1   0.5   0.7   0.7   0.9  1.66  0.78  0.51  0.00  0.00   46.95   47.46    1.45    0.00    0.00
 2013 312    80     0     0    15.8   48.6   16598   35.2   13.5   1.1   0.8   0.9   1.9   2.6   2.8   2.7   2.5   0.0   0.0   0.1   0.5   0.6   0.6   0.8  1.55  0.75  0.50  0.00  0.00   47.62   48.10    1.45    0.00    0.00
 2013 313    81     0     0    15.8   46.5   16598   33.7   12.8   1.0   0.9   0.8   1.8   2.5   2.6   2.6   2.4   0.0   0.0   0.1   0.5   0.6   0.6   0.7  1.46  0.72  0.50  0.00  0.00   48.31   48.72    1.45    0.00    0.00
 2013 314    82     0     0    16.2   44.4   16597   32.1   12.3   0.2   0.6   0.7   1.4   2.2   2.6   2.7   2.6   0.0   0.0   0.2   0.5   0.6   0.5   0.6  1.39  0.68  0.50  0.00  0.00   49.02   49.30    1.45    0.00    0.00
 2013 315    83     0     0    19.7   40.4   16596   28.1   12.4   0.4   0.4   0.6   1.0   1.6   2.3   2.5   2.5   0.0   0.0   0.1   0.6   0.6   0.5   0.6  1.38  0.68  0.50  0.00  0.00   49.68   49.53    1.47    0.00    0.00
 2013 316    84     0     0    20.7   38.7   16596   26.4   12.3   0.5   0.4   0.5   0.9   1.5   2.2   2.4   2.4   0.0   0.0   0.1   0.6   0.6   0.5   0.6  1.35  0.67  0.50  0.00  0.00   50.37   49.69    1.48    0.00    0.00
 2013 317    85     0     0    21.2   35.9   16595   24.4   11.5   0.6   0.6   0.5   0.8   1.3   1.9   2.2   2.3   0.0   0.0   0.1   0.5   0.6   0.5   0.6  1.25  0.63  0.50  0.00  0.00   51.06   50.05    1.49    0.00    0.00
 2013 318    86     0     0    21.3   32.0   16594   21.5   10.5   0.6   0.4   0.6   0.6   1.1   1.7   2.0   2.2   0.0   0.0   0.1   0.5   0.6   0.5   0.5  1.08  0.57  0.50  0.00  0.00   51.74   50.45    1.49    0.00    0.00
 2013 319    87     0     0    21.4   27.7   16594   18.2    9.5   0.0   0.5   0.3   0.4   0.8   1.4   1.8   2.1   0.0   0.0   0.1   0.5   0.6   0.5   0.5  0.89  0.51  0.50  0.00  0.00   52.46   50.92    1.50    0.00    0.00
 2013 320    88     0     0    22.1   25.9   16593   16.4    9.5   0.2   0.5   0.3   0.4   0.7   1.2   1.6   1.9   0.0   0.0   0.1   0.6   0.6   0.5   0.5  0.82  0.51  0.50  0.00  0.00   53.18   51.10    1.53    0.00    0.00
 2013 321    89     0     0    22.4   23.3   16592   14.3    9.0   0.4   0.3   0.3   0.4   0.6   1.0   1.3   1.7   0.0   0.0   0.1   0.6   0.6   0.5   0.5  0.70  0.51  0.50  0.00  0.00   53.91   51.31    1.54    0.00    0.00
 2013 322    90     0     0    22.4   20.8   16591   12.6    8.2   0.5   0.5   0.4   0.4   0.4   0.7   1.1   1.6   0.0   0.0   0.1   0.5   0.6   0.5   0.5  0.56  0.51  0.50  0.00  0.00   54.63   51.78    1.55    0.00    0.00
 2013 323    91     0     0    22.4   19.4   16591   11.4    8.1   0.5   0.6   0.5   0.5   0.4   0.5   0.9   1.5   0.0   0.0   0.1   0.5   0.6   0.5   0.5  0.52  0.51  0.49  0.00  0.00   55.37   52.21    1.55    0.00    0.00
 2013 324    92     0     0    22.4   18.1   16590    9.8    8.3   0.3   0.5   0.5   0.5   0.5   0.4   0.7   1.3   0.0   0.0   0.2   0.6   0.6   0.5   0.5  0.52  0.51  0.49  0.00  0.00   56.08   52.34    1.55    0.00    0.00
 2013 325    93     0     0    22.4   17.6   16589    9.3    8.3   0.6   0.5   0.5   0.5   0.5   0.4   0.6   1.2   0.0   0.0   0.1   0.6   0.6   0.5   0.5  0.52  0.51  0.49  0.00  0.00   56.79   52.62    1.55    0.00    0.00
 2013 326    94     0     0    22.4   16.6   16589    8.3    8.3   0.4   0.5   0.3   0.5   0.5   0.4   0.5   1.1   0.0   0.0   0.1   0.6   0.6   0.5   0.5  0.52  0.51  0.49  0.00  0.00   57.50   52.83    1.55    0.00    0.00
 2013 327    95     0     0    22.4   16.5   16588    8.6    7.9   0.5   0.7   0.3   0.5   0.5   0.4   0.5   1.0   0.0   0.0   0.1   0.5   0.6   0.5   0.5  0.52  0.50  0.49  0.00  0.00   58.23   53.38    1.55    0.00    0.00
 2013 328    96     0     0    22.4   15.6   16587    7.7    7.9   0.4   0.4   0.4   0.3   0.5   0.4   0.5   0.8   0.0   0.0   0.1   0.5   0.6   0.5   0.5  0.52  0.50  0.49  0.00  0.00   58.93   53.91    1.55    0.00    0.00
 2013 329    97     0     0    22.4   15.5   16587    7.6    7.9   0.6   0.5   0.5   0.3   0.3   0.4   0.5   0.7   0.0   0.0   0.1   0.5   0.6   0.5   0.5  0.52  0.49  0.47  0.00  0.00   59.66   54.51    1.55    0.00    0.00
 2013 330    98     0     0    22.4   15.1   16586    7.3    7.8   0.6   0.4   0.5   0.4   0.4   0.4   0.4   0.7   0.0   0.0   0.1   0.5   0.6   0.5   0.5  0.52  0.49  0.46  0.00  0.00   60.43   55.13    1.55    0.00    0.00
 2013 331    99     0     0    22.4   14.9   16585    7.1    7.8   0.1   0.6   0.4   0.5   0.4   0.4   0.4   0.6   0.0   0.0   0.1   0.5   0.6   0.5   0.5  0.52  0.48  0.45  0.00  0.00   61.22   55.76    1.55    0.00    0.00
 2013 332   100     0     0    22.4   15.2   16584    7.1    8.1   0.2   0.5   0.4   0.5   0.4   0.4   0.4   0.5   0.0   0.0   0.1   0.6   0.6   0.5   0.5  0.52  0.48  0.44  0.00  0.00   62.01   56.03    1.55    0.00    0.00
 2013 333   101     0     0    22.4   15.0   16584    6.9    8.1   0.4   0.3   0.4   0.5   0.4   0.4   0.5   0.5   0.0   0.0   0.1   0.6   0.6   0.5   0.5  0.52  0.48  0.43  0.00  0.00   62.81   56.34    1.55    0.00    0.00
 2013 334   102     0     0    22.4   15.3   16583    7.6    7.7   0.6   0.5   0.5   0.5   0.5   0.5   0.5   0.5   0.0   0.0   0.1   0.5   0.6   0.5   0.5  0.52  0.47  0.42  0.00  0.00   63.60   56.98    1.55    0.00    0.00
 2013 335   103     0     0    22.4   15.7   16582    8.0    7.6   0.5   0.6   0.5   0.5   0.5   0.5   0.5   0.5   0.0   0.0   0.1   0.5   0.6   0.5   0.5  0.52  0.47  0.41  0.00  0.00   64.37   57.59    1.55    0.00    0.00
 2013 336   104     0     0    22.4   14.2   16581    6.6    7.6   0.4   0.4   0.3   0.3   0.3   0.5   0.5   0.5   0.0   0.0   0.1   0.5   0.6   0.5   0.5  0.52  0.47  0.40  0.00  0.00   65.15   58.19    1.55    0.00    0.00
 2013 337   105     0     0    22.4   14.8   16581    7.2    7.6   0.6   0.5   0.4   0.3   0.3   0.5   0.5   0.5   0.0   0.0   0.1   0.5   0.6   0.5   0.5  0.52  0.46  0.39  0.00  0.00   65.93   58.82    1.55    0.00    0.00
 2013 338   106     0     0    22.4   14.4   16580    6.9    7.5   0.6   0.4   0.5   0.4   0.4   0.5   0.4   0.4   0.0   0.0   0.1   0.5   0.6   0.5   0.5  0.52  0.46  0.38  0.00  0.00   66.70   59.43    1.55    0.00    0.00
 2013 339   107     0     0    22.4   14.9   16579    7.4    7.5   0.6   0.6   0.5   0.4   0.4   0.5   0.4   0.5   0.0   0.0   0.1   0.4   0.6   0.5   0.5  0.52  0.46  0.37  0.00  0.00   67.47   60.06    1.55    0.00    0.00
 2013 340   108     0     0    22.4   14.6   16578    7.2    7.4   0.6   0.4   0.3   0.5   0.4   0.5   0.4   0.5   0.0   0.0   0.1   0.4   0.6   0.5   0.5  0.52  0.46  0.36  0.00  0.00   68.20   60.66    1.55    0.00    0.00
 2013 341   109     0     0    22.4   15.1   16578    7.7    7.4   0.7   0.5   0.4   0.5   0.5   0.5   0.4   0.5   0.0   0.0   0.1   0.4   0.6   0.5   0.5  0.52  0.45  0.36  0.00  0.00   68.91   61.24    1.55    0.00    0.00
 2013 342   110     0     0    22.4   14.9   16577    7.6    7.3   0.4   0.5   0.5   0.3   0.5   0.5   0.4   0.5   0.0   0.0   0.1   0.4   0.5   0.5   0.5  0.52  0.45  0.35  0.00  0.00   69.58   61.80    1.55    0.00    0.00
 2013 343   111     0     0    22.4   14.8   16576    7.3    7.5   0.5   0.3   0.3   0.4   0.5   0.5   0.5   0.5   0.0   0.0   0.1   0.5   0.6   0.5   0.5  0.52  0.45  0.34  0.00  0.00   70.41   62.27    1.55    0.00    0.00
 2013 344   112     0     0    22.4   14.3   16576    6.9    7.4   0.4   0.5   0.4   0.4   0.4   0.4   0.5   0.5   0.0   0.0   0.1   0.5   0.6   0.5   0.5  0.52  0.45  0.34  0.00  0.00   71.22   62.95    1.55    0.00    0.00
 2013 345   113     0     0    22.4   14.9   16575    7.5    7.4   0.6   0.6   0.5   0.5   0.4   0.4   0.5   0.5   0.0   0.0   0.1   0.5   0.6   0.5   0.5  0.52  0.44  0.33  0.00  0.00   72.03   63.58    1.55    0.00    0.00
 2013 346   114     0     0    22.4   14.9   16574    7.5    7.4   0.4   0.4   0.6   0.5   0.5   0.4   0.5   0.5   0.0   0.0   0.1   0.5   0.6   0.5   0.5  0.52  0.44  0.32  0.00  0.00   72.83   64.23    1.55    0.00    0.00
 2013 347   115     0     0    22.4   14.7   16573    7.3    7.3   0.6   0.6   0.3   0.4   0.5   0.4   0.5   0.5   0.0   0.0   0.1   0.5   0.6   0.5   0.5  0.52  0.44  0.32  0.00  0.00   73.59   64.86    1.55    0.00    0.00
 2013 348   116     0     0    22.4   14.2   16573    6.9    7.3   0.6   0.4   0.4   0.4   0.4   0.4   0.4   0.5   0.0   0.0   0.1   0.4   0.5   0.5   0.5  0.52  0.44  0.31  0.00  0.00   74.30   65.45    1.55    0.00    0.00
 2013 349   117     0     0    22.4   14.7   16572    7.5    7.2   0.4   0.6   0.5   0.5   0.4   0.4   0.4   0.5   0.0   0.0   0.1   0.4   0.5   0.5   0.5  0.52  0.43  0.30  0.00  0.00   74.98   66.06    1.55    0.00    0.00
 2013 350   118     0     0    22.4   14.3   16571    6.9    7.4   0.5   0.3   0.3   0.5   0.5   0.4   0.4   0.5   0.0   0.0   0.1   0.6   0.6   0.5   0.5  0.52  0.43  0.30  0.00  0.00   75.82   66.55    1.55    0.00    0.00
 2013 351   119     0     0    22.4   14.7   16570    7.5    7.2   0.8   0.5   0.4   0.4   0.5   0.4   0.5   0.5   0.0   0.0   0.1   0.4   0.6   0.5   0.5  0.52  0.43  0.29  0.00  0.00   76.71   67.36    1.55    0.00    0.00
 2013 352   120     0     0    22.4   15.1   16569    7.9    7.2   0.5   0.7   0.5   0.5   0.5   0.4   0.5   0.5   0.0   0.0   0.1   0.4   0.6   0.5   0.5  0.52  0.43  0.29  0.00  0.00   77.59   68.09    1.55    0.00    0.00
 2013 353   121     0     0    22.4   14.6   16569    7.5    7.1   0.7   0.4   0.3   0.5   0.4   0.4   0.5   0.5   0.0   0.0   0.0   0.4   0.6   0.5   0.5  0.52  0.43  0.28  0.00  0.00   78.44   68.86    1.55    0.00    0.00
 2013 354   122     0     0    22.4   14.9   16568    7.8    7.1   0.7   0.6   0.4   0.5   0.5   0.5   0.5   0.5   0.0   0.0   0.1   0.4   0.5   0.5   0.5  0.52  0.43  0.28  0.00  0.00   79.24   69.53    1.55    0.00    0.00
 2013 355   123     0     0    22.4   15.1   16567    8.2    6.9   0.5   0.6   0.6   0.5   0.5   0.5   0.5   0.5   0.0   0.0   0.0   0.4   0.5   0.5   0.5  0.52  0.42  0.27  0.00  0.00   79.98   70.25    1.55    0.00    0.00
 2013 356   124     0     0    22.4   14.4   16566    7.1    7.2   0.5   0.3   0.3   0.5   0.4   0.5   0.5   0.5   0.0   0.0   0.2   0.5   0.6   0.5   0.5  0.52  0.42  0.27  0.00  0.00   80.85   70.71    1.55    0.00    0.00
 2013 357   125     0     0    22.4   14.6   16566    7.6    7.0   0.6   0.5   0.4   0.5   0.5   0.5   0.4   0.5   0.0   0.0   0.0   0.5   0.6   0.5   0.5  0.52  0.42  0.26  0.00  0.00   81.71   71.55    1.55    0.00    0.00
 2013 358   126     0     0    22.4   15.2   16565    8.2    7.0   0.5   0.7   0.5   0.6   0.5   0.5   0.5   0.5   0.0   0.0   0.1   0.4   0.6   0.5   0.5  0.52  0.42  0.26  0.00  0.00   82.54   72.21    1.55    0.00    0.00
 2013 359   127     0     0    22.4   14.5   16564    7.6    6.9   0.8   0.5   0.3   0.5   0.5   0.5   0.5   0.5   0.0   0.0   0.0   0.4   0.5   0.5   0.5  0.52  0.42  0.26  0.00  0.00   83.33   73.00    1.55    0.00    0.00
 2013 360   128     0     0    22.4   15.0   16563    8.2    6.9   0.3   0.7   0.5   0.5   0.5   0.5   0.5   0.5   0.0   0.0   0.1   0.4   0.5   0.5   0.5  0.51  0.41  0.25  0.00  0.00   84.07   73.64    1.55    0.00    0.00
 2013 361   129     0     0    22.4   14.7   16562    7.7    7.0   0.7   0.3   0.4   0.5   0.5   0.5   0.5   0.5   0.0   0.0   0.0   0.5   0.6   0.5   0.5  0.51  0.41  0.25  0.00  0.00   85.00   74.30    1.55    0.00    0.00
 2013 362   130     0     0    22.4   14.9   16562    7.9    6.9   0.3   0.6   0.5   0.5   0.5   0.5   0.5   0.5   0.0   0.0   0.2   0.4   0.6   0.5   0.5  0.52  0.41  0.24  0.00  0.00   85.94   75.08    1.55    0.00    0.00
 2013 363   131     0     0    22.4   14.5   16561    7.8    6.8   0.7   0.5   0.6   0.5   0.5   0.4   0.5   0.5   0.0   0.0   0.0   0.4   0.6   0.4   0.5  0.51  0.41  0.24  0.00  0.00   86.85   76.00    1.55    0.00    0.00
 2013 364   132     0     0    22.4   14.4   16560    7.6    6.8   0.3   0.8   0.4   0.6   0.5   0.4   0.5   0.5   0.0   0.0   0.2   0.4   0.6   0.4   0.5  0.51  0.40  0.24  0.00  0.00   87.73   76.69    1.55    0.00    0.00
 2013 365   133     0     0    22.4   14.4   16559    7.8    6.6   0.7   0.5   0.5   0.5   0.5   0.4   0.5   0.5   0.0   0.0   0.0   0.4   0.5   0.4   0.5  0.51  0.40  0.23  0.00  0.00   88.65   77.61    1.55    0.00    0.00
 2014 001   134     0     0    22.4   14.9   16558    8.1    6.8   0.3   0.6   0.6   0.6   0.5   0.5   0.5   0.5   0.0   0.0   0.2   0.4   0.5   0.4   0.5  0.51  0.40  0.23  0.00  0.00   89.51   78.23    1.55    0.00    0.00
 2014 002   135     0     0    22.4   14.4   16557    7.8    6.6   0.7   0.4   0.4   0.5   0.5   0.5   0.5   0.5   0.0   0.0   0.0   0.4   0.5   0.4   0.5  0.51  0.40  0.23  0.00  0.00   90.34   79.08    1.55    0.00    0.00
 2014 003   136     0     0    22.4   14.9   16557    8.2    6.6   0.6   0.6   0.5   0.6   0.5   0.5   0.5   0.5   0.0   0.0   0.2   0.4   0.5   0.4   0.5  0.51  0.40  0.22  0.00  0.00   91.12   79.70    1.55    0.00    0.00
 2014 004   137     0     0    22.4   14.7   16556    8.2    6.5   0.5   0.5   0.7   0.5   0.5   0.5   0.5   0.5   0.0   0.0   0.0   0.4   0.5   0.4   0.4  0.51  0.39  0.22  0.00  0.00   91.82   80.44    1.55    0.00    0.00
 2014 005   138     0     0    22.4   14.0   16555    7.2    6.8   0.2   0.3   0.3   0.5   0.5   0.5   0.5   0.5   0.0   0.0   0.2   0.5   0.6   0.4   0.4  0.51  0.39  0.22  0.00  0.00   92.65   80.83    1.55    0.00    0.00
 2014 006   139     0     0    22.4   14.5   16554    7.9    6.6   0.6   0.5   0.4   0.5   0.5   0.5   0.5   0.5   0.0   0.0   0.0   0.5   0.6   0.4   0.4  0.51  0.39  0.21  0.00  0.00   93.49   81.67    1.55    0.00    0.00
 2014 007   140     0     0    22.4   15.0   16554    8.3    6.7   0.1   0.6   0.6   0.6   0.5   0.5   0.5   0.5   0.0   0.0   0.2   0.4   0.6   0.4   0.4  0.51  0.39  0.21  0.00  0.00   94.29   82.29    1.55    0.00    0.00
 2014 008   141     0     0    22.4   13.9   16553    6.9    7.0   0.4   0.3   0.3   0.3   0.5   0.5   0.5   0.5   0.0   0.0   0.0   0.6   0.7   0.5   0.4  0.51  0.39  0.21  0.00  0.00   95.20   82.72    1.55    0.00    0.00
 2014 009   142     0     0    22.4   14.3   16552    7.5    6.7   0.5   0.6   0.4   0.3   0.5   0.5   0.5   0.5   0.0   0.0   0.2   0.4   0.6   0.5   0.4  0.51  0.38  0.21  0.00  0.00   96.12   83.50    1.55    0.00    0.00
 2014 010   143     0     0    22.4   14.3   16551    7.7    6.7   0.6   0.4   0.5   0.4   0.5   0.5   0.5   0.5   0.0   0.0   0.0   0.4   0.6   0.5   0.4  0.51  0.38  0.20  0.00  0.00   97.06   84.34    1.55    0.00    0.00
 2014 011   144     0     0    22.4   14.6   16550    7.8    6.8   0.3   0.6   0.6   0.4   0.5   0.5   0.5   0.5   0.0   0.0   0.2   0.4   0.6   0.5   0.4  0.51  0.38  0.20  0.00  0.00   97.96   84.94    1.55    0.00    0.00
 2014 012   145     0     0    22.4   14.4   16549    7.7    6.7   0.6   0.5   0.3   0.5   0.5   0.5   0.5   0.5   0.0   0.0   0.0   0.4   0.6   0.5   0.4  0.51  0.38  0.20  0.00  0.00   98.80   85.68    1.55    0.00    0.00
 2014 013   146     0     0    22.4   14.6   16549    7.8    6.8   0.4   0.6   0.4   0.5   0.5   0.5   0.5   0.5   0.0   0.0   0.1   0.4   0.6   0.5   0.4  0.51  0.38  0.20  0.00  0.00   99.57   86.21    1.55    0.00    0.00
 2014 014   147     0     0    22.4   14.2   16548    7.4    6.8   0.6   0.4   0.5   0.3   0.5   0.5   0.5   0.5   0.0   0.0   0.1   0.4   0.6   0.5   0.5  0.51  0.37  0.19  0.00  0.00  100.31   86.80    1.55    0.00    0.00
 2014 015   148     0     0    22.4   14.6   16547    7.8    6.8   0.3   0.6   0.6   0.4   0.5   0.5   0.5   0.5   0.0   0.0   0.1   0.5   0.6   0.5   0.5  0.51  0.37  0.19  0.00  0.00  101.05   87.33    1.55    0.00    0.00
 2014 016   149     0     0    22.4   14.1   16547    7.3    6.8   0.5   0.4   0.3   0.4   0.5   0.5   0.5   0.5   0.0   0.0   0.1   0.5   0.6   0.5   0.5  0.51  0.37  0.19  0.00  0.00  101.80   87.92    1.55    0.00    0.00
 2014 017   150     0     0    22.4   14.6   16546    7.9    6.7   0.6   0.6   0.4   0.5   0.5   0.5   0.5   0.5   0.0   0.0   0.1   0.5   0.6   0.5   0.5  0.51  0.37  0.19  0.00  0.00  102.56   88.54    1.55    0.00    0.00
 2014 018   151     0     0    22.4   14.7   16545    8.0    6.7   0.7   0.4   0.5   0.5   0.5   0.5   0.5   0.5   0.0   0.0   0.1   0.4   0.6   0.5   0.5  0.51  0.37  0.19  0.00  0.00  103.31   89.20    1.55    0.00    0.00
 2014 019   152     0     0    22.4   14.8   16545    8.2    6.6   0.4   0.7   0.6   0.4   0.5   0.5   0.5   0.5   0.0   0.0   0.1   0.4   0.5   0.5   0.5  0.51  0.37  0.18  0.00  0.00  104.05   89.89    1.55    0.00    0.00
 2014 020   153     0     0    22.4   14.3   16544    7.4    6.9   0.5   0.2   0.4   0.5   0.5   0.5   0.5   0.5   0.0   0.0   0.1   0.6   0.6   0.5   0.5  0.51  0.36  0.18  0.00  0.00  104.98   90.43    1.55    0.00    0.00
 2014 021   154     0     0    22.4   14.8   16543    8.2    6.6   0.6   0.5   0.5   0.6   0.5   0.5   0.5   0.5   0.0   0.0   0.0   0.4   0.6   0.5   0.5  0.51  0.36  0.18  0.00  0.00  105.93   91.37    1.55    0.00    0.00
 2014 022   155     0     0    22.4   14.4   16542    7.2    7.1   0.3   0.3   0.3   0.4   0.5   0.5   0.5   0.5   0.0   0.0   0.2   0.6   0.7   0.5   0.5  0.51  0.36  0.18  0.00  0.00  106.92   91.69    1.55    0.00    0.00
 2014 023   156     0     0    22.4   14.5   16541    7.4    7.1   0.7   0.4   0.3   0.5   0.5   0.5   0.5   0.5   0.0   0.0   0.0   0.6   0.7   0.5   0.5  0.51  0.36  0.18  0.00  0.00  107.91   92.20    1.55    0.00    0.00
 2014 024   157     0     0    22.4   14.7   16540    8.0    6.7   0.3   0.8   0.4   0.5   0.5   0.5   0.5   0.5   0.0   0.0   0.2   0.4   0.6   0.5   0.5  0.51  0.36  0.17  0.00  0.00  108.90   92.98    1.55    0.00    0.00
 2014 025   158     0     0    22.4   15.4   16539    8.2    7.2   0.4   0.7   0.5   0.5   0.6   0.5   0.5   0.5   0.0   0.0   0.3   0.5   0.7   0.5   0.5  0.51  0.36  0.17  0.00  0.00  109.85   93.28    1.55    0.00    0.00
 2014 026   159     0     0    22.4   16.2   16538    8.7    7.4   0.9   0.7   0.5   0.5   0.6   0.5   0.5   0.5   0.0   0.0   0.0   0.7   0.8   0.6   0.5  0.52  0.36  0.17  0.00  0.00  110.76   93.83    1.55    0.00    0.00
 2014 027   160     0     0    22.4   15.9   16537    9.0    6.9   0.7   0.8   0.6   0.6   0.6   0.5   0.5   0.5   0.0   0.0   0.2   0.4   0.6   0.5   0.5  0.52  0.35  0.17  0.00  0.00  111.61   94.52    1.55    0.00    0.00
 2014 028   161     0     0    22.4   16.7   16537    9.4    7.3   0.6   0.8   0.7   0.6   0.6   0.5   0.5   0.5   0.0   0.0   0.3   0.6   0.7   0.5   0.5  0.54  0.35  0.17  0.00  0.00  112.46   94.93    1.55    0.00    0.00
 2014 029   162     0     0    22.4   17.5   16536    9.9    7.7   0.7   0.7   0.7   0.6   0.7   0.6   0.6   0.5   0.0   0.0   0.1   0.7   0.8   0.6   0.5  0.55  0.35  0.17  0.00  0.00  113.26   95.36    1.55    0.00    0.00
 2014 030   163     0     0    22.4   18.3   16535   10.0    8.3   0.4   0.6   0.7   0.6   0.6   0.6   0.7   0.6   0.0   0.0   0.2   0.8   0.9   0.6   0.5  0.57  0.35  0.16  0.00  0.00  114.06   95.53    1.55    0.00    0.00
 2014 031   164     0     0    22.6   18.9   16535   10.0    8.9   0.6   0.6   0.7   0.6   0.6   0.6   0.6   0.6   0.0   0.0   0.1   0.9   1.1   0.7   0.6  0.59  0.36  0.16  0.00  0.00  114.88   95.76    1.55    0.00    0.00
 2014 032   165     0     0    23.7   18.8   16534    9.2    9.5   0.3   0.4   0.6   0.5   0.6   0.6   0.6   0.6   0.0   0.0   0.1   1.1   1.2   0.7   0.6  0.61  0.37  0.17  0.00  0.00  115.76   96.02    1.56    0.00    0.00
 2014 033   166     0     0    24.6   18.6   16533    8.5   10.1   0.3   0.3   0.5   0.5   0.5   0.6   0.6   0.6   0.0   0.0   0.1   1.2   1.3   0.8   0.6  0.63  0.38  0.17  0.00  0.00  116.59   96.24    1.58    0.00    0.00
