*SOIL-PLANT-ATMOSPHERE MODULE OUTPUT FILE

*DSSAT Cropping System Model Ver. 4.0.2.000               Aug 23, 2016; 18:31:31

*RUN   1        : UYSB                    
 MODEL          : CRGRO040 - Soybean         
 EXPERIMENT     : UYSB0335 SB    late to create DSS                             
 TREATMENT  1   : UYSB                    

@YEAR DOY   DAS   SRAA   TMXA   TMNA   EOAA   ETAA   EPAA   ESAA   EFAD   ETAC   EPAC   ESAC   EFAC
 1999 232     0  15.80  25.80  14.50  3.920  2.370  0.000  2.370  0.000    2.4    0.0    2.4    0.0
 1999 233     1  13.60  27.70  16.20  3.497  1.374  0.000  1.374  0.000    3.7    0.0    3.7    0.0
 1999 234     2   5.10  15.50  12.00  1.085  1.085  0.000  1.085  0.000    4.8    0.0    4.8    0.0
 1999 235     3   5.10  15.10  11.50  1.074  1.074  0.000  1.074  0.000    5.9    0.0    5.9    0.0
 1999 236     4   5.80  20.00  13.70  1.330  1.051  0.000  1.051  0.000    7.0    0.0    7.0    0.0
 1999 237     5  12.80  15.40   5.80  2.562  0.900  0.000  0.900  0.000    7.9    0.0    7.9    0.0
 1999 238     6  18.70  18.90   5.10  3.911  0.800  0.000  0.800  0.000    8.7    0.0    8.7    0.0
 1999 239     7  11.90  18.60   2.80  2.424  0.728  0.000  0.728  0.000    9.4    0.0    9.4    0.0
 1999 240     8   6.00  14.60   3.10  1.155  0.672  0.000  0.672  0.000   10.1    0.0   10.1    0.0
 1999 241     9  14.00  19.00  11.60  3.112  0.627  0.000  0.627  0.000   10.7    0.0   10.7    0.0
 1999 242    10   5.40  27.80  14.00  1.367  1.225  0.000  1.225  0.000   11.9    0.0   11.9    0.0
 1999 243    11   5.50  27.90  15.00  1.404  0.636  0.000  0.636  0.000   12.5    0.0   12.5    0.0
 1999 244    12   5.50  16.40  13.70  1.203  0.598  0.000  0.598  0.000   13.1    0.0   13.1    0.0
 1999 245    13   7.00  20.00  14.70  1.619  1.099  0.000  1.099  0.000   14.2    0.0   14.2    0.0
 1999 246    14   5.60  15.90  12.80  1.207  1.207  0.000  1.207  0.000   15.4    0.0   15.4    0.0
 1999 247    15   5.60  16.30  13.60  1.221  1.221  0.003  1.218  0.000   16.7    0.0   16.7    0.0
 1999 248    16   5.70  19.20  14.80  1.305  1.305  0.003  1.302  0.000   18.0    0.0   18.0    0.0
 1999 249    17  13.70  22.90  16.20  3.325  3.325  0.010  3.316  0.000   21.3    0.0   21.3    0.0
 1999 250    18   7.90  19.00  12.40  1.767  1.767  0.006  1.761  0.000   23.1    0.0   23.0    0.0
 1999 251    19  18.60  19.80   7.40  4.021  4.021  0.014  4.007  0.000   27.1    0.0   27.0    0.0
 1999 252    20  20.70  18.30   5.90  4.321  2.702  0.026  2.676  0.000   29.8    0.1   29.7    0.0
 1999 253    21  20.50  16.00   4.00  4.063  1.850  0.025  1.825  0.000   31.6    0.1   31.6    0.0
 1999 254    22  16.80  17.00   4.00  3.379  1.273  0.021  1.251  0.000   32.9    0.1   32.8    0.0
 1999 255    23  17.60  21.20   5.20  3.801  1.041  0.025  1.016  0.000   34.0    0.1   33.8    0.0
 1999 256    24  13.60  24.70  12.40  3.271  3.271  0.014  3.257  0.000   37.2    0.1   37.1    0.0
 1999 257    25  15.20  18.00   9.50  3.267  2.418  0.024  2.394  0.000   39.6    0.2   39.5    0.0
 1999 258    26  21.10  20.00   5.20  4.481  2.476  0.034  2.442  0.000   42.1    0.2   41.9    0.0
 1999 259    27  20.70  23.60  10.50  4.832  1.423  0.038  1.385  0.000   43.5    0.2   43.3    0.0
 1999 260    28  20.50  24.50   7.60  4.723  1.122  0.039  1.083  0.000   44.7    0.3   44.4    0.0
 1999 261    29  21.90  29.80  11.70  5.565  0.968  0.048  0.920  0.000   45.6    0.3   45.3    0.0
 1999 262    30  21.60  20.10   9.30  4.767  0.858  0.044  0.814  0.000   46.5    0.4   46.1    0.0
 1999 263    31  20.60  26.00   8.90  4.889  0.788  0.050  0.738  0.000   47.3    0.4   46.9    0.0
 1999 264    32  21.40  23.20   8.90  4.900  0.737  0.057  0.680  0.000   48.0    0.5   47.5    0.0
 1999 265    33  21.40  20.60  10.70  4.811  0.695  0.062  0.634  0.000   48.7    0.5   48.2    0.0
 1999 266    34  22.90  20.90   7.50  5.023  0.666  0.071  0.596  0.000   49.4    0.6   48.8    0.0
 1999 267    35  22.50  23.10   8.10  5.107  0.641  0.077  0.564  0.000   50.0    0.7   49.3    0.0
 1999 268    36   6.60  20.50   8.70  1.455  0.560  0.024  0.537  0.000   50.6    0.7   49.9    0.0
 1999 269    37   7.30  19.60  10.60  1.617  0.541  0.028  0.513  0.000   51.1    0.7   50.4    0.0
 1999 270    38  20.30  20.40  11.50  4.580  0.577  0.084  0.492  0.000   51.7    0.8   50.9    0.0
 1999 271    39   9.10  21.60  11.70  2.088  0.516  0.042  0.474  0.000   52.2    0.9   51.3    0.0
 1999 272    40  22.90  17.60   7.00  4.771  0.564  0.107  0.458  0.000   52.8    1.0   51.8    0.0
 1999 273    41  21.80  22.80   3.20  4.713  2.511  0.111  2.400  0.000   55.3    1.1   54.2    0.0
 1999 274    42   6.90  14.10   8.50  1.386  1.386  0.021  1.365  0.000   56.7    1.1   55.6    0.0
 1999 275    43  20.80  14.90   5.60  4.109  3.819  0.106  3.713  0.000   60.5    1.2   59.3    0.0
 1999 276    44  23.90  12.80   1.70  4.389  3.157  0.117  3.040  0.000   63.6    1.3   62.3    0.0
 1999 277    45  22.10  13.20  -0.50  3.989  1.547  0.108  1.440  0.000   65.2    1.4   63.8    0.0
 1999 278    46   8.90  17.30   4.50  1.801  1.157  0.049  1.108  0.000   66.3    1.5   64.9    0.0
 1999 279    47  12.90  20.20  12.20  2.916  2.916  0.051  2.865  0.000   69.3    1.5   67.7    0.0
 1999 280    48   7.20  16.80  13.40  1.572  1.572  0.030  1.542  0.000   70.8    1.6   69.3    0.0
 1999 281    49  13.30  18.70  12.30  2.949  2.949  0.059  2.890  0.000   73.8    1.6   72.2    0.0
 1999 282    50  15.20  18.30   8.40  3.235  3.235  0.091  3.143  0.000   77.0    1.7   75.3    0.0
 1999 283    51  23.00  21.30   8.70  5.110  3.654  0.187  3.467  0.000   80.7    1.9   78.8    0.0
 1999 284    52  24.00  23.80   9.60  5.549  2.459  0.219  2.240  0.000   83.1    2.1   81.0    0.0
 1999 285    53   7.40  19.00  12.70  1.650  1.650  0.044  1.606  0.000   84.8    2.2   82.6    0.0
 1999 286    54   7.40  18.00  15.40  1.667  1.667  0.048  1.619  0.000   86.5    2.2   84.2    0.0
 1999 287    55   7.50  15.40  12.20  1.584  1.584  0.049  1.535  0.000   88.0    2.3   85.8    0.0
 1999 288    56  11.40  23.90  12.80  2.706  2.706  0.089  2.617  0.000   90.7    2.4   88.4    0.0
 1999 289    57  22.60  22.30  11.10  5.179  3.379  0.290  3.089  0.000   94.1    2.6   91.5    0.0
 1999 290    58  26.50  25.90  10.20  6.302  2.039  0.380  1.660  0.000   96.2    3.0   93.1    0.0
 1999 291    59  26.60  26.20  13.50  6.516  1.623  0.426  1.197  0.000   97.8    3.4   94.3    0.0
 1999 292    60  26.50  27.00   9.90  6.362  1.441  0.455  0.986  0.000   99.2    3.9   95.3    0.0
 1999 293    61  26.10  27.20  13.00  6.434  1.353  0.494  0.859  0.000  100.6    4.4   96.2    0.0
 1999 294    62  22.20  28.40  13.10  5.550  1.231  0.460  0.771  0.000  101.8    4.9   96.9    0.0
 1999 295    63  20.50  23.00  12.70  4.776  1.163  0.457  0.705  0.000  103.0    5.3   97.7    0.0
 1999 296    64  16.90  23.20  12.20  3.924  1.074  0.420  0.654  0.000  104.0    5.7   98.3    0.0
 1999 297    65  15.20  23.30  12.60  3.539  1.034  0.422  0.613  0.000  105.1    6.2   98.9    0.0
 1999 298    66  15.90  22.70  15.50  3.757  1.076  0.498  0.578  0.000  106.2    6.7   99.5    0.0
 1999 299    67  26.40  24.80  13.50  6.280  1.489  0.940  0.549  0.000  107.6    7.6  100.0    0.0
 1999 300    68  25.10  26.30  15.20  6.145  1.561  1.037  0.524  0.000  109.2    8.6  100.6    0.0
 1999 301    69  20.90  29.60  15.50  5.309  1.524  1.023  0.502  0.000  110.7    9.7  101.1    0.0
 1999 302    70  25.80  27.20  18.20  6.484  1.905  1.423  0.482  0.000  112.6   11.1  101.6    0.0
 1999 303    71  14.70  24.00  17.40  3.520  1.349  0.884  0.465  0.000  114.0   12.0  102.0    0.0
 1999 304    72  21.10  25.90  16.80  5.119  1.895  1.446  0.449  0.000  115.9   13.4  102.5    0.0
 1999 305    73  10.60  24.60  15.60  2.496  1.226  0.790  0.435  0.000  117.1   14.2  102.9    0.0
 1999 306    74  25.30  25.70  15.50  6.003  2.509  2.086  0.422  0.000  119.6   16.3  103.3    0.0
 1999 307    75  24.20  24.00  14.00  5.529  2.528  2.118  0.411  0.000  122.1   18.4  103.7    0.0
 1999 308    76   8.30  17.00  12.00  1.695  1.102  0.702  0.400  0.000  123.2   19.1  104.1    0.0
 1999 309    77  28.80  22.60  10.30  6.228  3.043  2.653  0.390  0.000  126.3   21.8  104.5    0.0
 1999 310    78  29.10  27.80   9.90  6.670  3.366  2.986  0.380  0.000  129.7   24.7  104.9    0.0
 1999 311    79  15.40  20.70  13.60  3.318  2.379  1.579  0.800  0.000  132.0   26.3  105.7    0.0
 1999 312    80  25.00  19.00   8.50  5.019  2.871  2.494  0.376  0.000  134.9   28.8  106.1    0.0
 1999 313    81  27.50  17.50   6.50  5.297  3.064  2.696  0.368  0.000  138.0   31.5  106.5    0.0
 1999 314    82  29.20  20.70   2.70  5.670  3.296  2.936  0.360  0.000  141.3   34.4  106.8    0.0
 1999 315    83  29.30  25.40   8.50  6.367  3.722  3.369  0.353  0.000  145.0   37.8  107.2    0.0
 1999 316    84  28.50  28.30  10.00  6.477  3.909  3.564  0.346  0.000  148.9   41.4  107.5    0.0
 1999 317    85  27.40  27.10  14.70  6.349  3.986  3.647  0.339  0.000  152.9   45.0  107.9    0.0
 1999 318    86  24.70  27.00  12.90  5.613  3.707  3.375  0.333  0.000  156.6   48.4  108.2    0.0
 1999 319    87  30.30  29.00  14.10  7.091  4.750  4.423  0.327  0.000  161.3   52.8  108.5    0.0
 1999 320    88  30.30  29.00  12.80  6.996  4.848  4.526  0.321  0.000  166.2   57.4  108.8    0.0
 1999 321    89  26.20  28.60  12.70  5.998  4.321  4.005  0.316  0.000  170.5   61.4  109.1    0.0
 1999 322    90  25.50  28.30  13.90  5.855  4.333  4.022  0.311  0.000  174.8   65.4  109.5    0.0
 1999 323    91  23.10  28.80  14.60  5.349  4.080  3.774  0.306  0.000  178.9   69.2  109.8    0.0
 1999 324    92  22.60  27.10  15.50  5.154  4.023  3.721  0.302  0.000  182.9   72.9  110.1    0.0
 1999 325    93  29.40  27.20  14.00  6.620  5.175  4.878  0.297  0.000  188.1   77.8  110.4    0.0
 1999 326    94  30.60  25.70  12.20  6.658  5.288  4.995  0.293  0.000  193.4   82.7  110.7    0.0
 1999 327    95  15.50  25.00  12.90  3.358  3.354  2.554  0.800  0.000  196.8   85.3  111.5    0.0
 1999 328    96  24.10  26.90  14.30  5.394  4.440  4.148  0.292  0.000  201.2   89.4  111.7    0.0
 1999 329    97  23.20  29.00  11.50  5.200  5.200  3.200  2.001  0.000  206.4   92.6  113.7    0.0
 1999 330    98  10.50  23.00  15.30  2.255  2.255  1.405  0.850  0.000  208.7   94.1  114.6    0.0
 1999 331    99  24.40  27.20  14.70  5.481  5.481  3.792  1.688  0.000  214.1   97.8  116.3    0.0
 1999 332   100  31.30  30.40  13.30  7.210  6.953  5.746  1.207  0.000  221.1  103.6  117.5    0.0
 1999 333   101  29.40  32.10  14.10  6.940  6.561  5.569  0.992  0.000  227.6  109.2  118.5    0.0
 1999 334   102  31.80  33.90  17.50  7.841  7.192  6.329  0.862  0.000  234.8  115.5  119.3    0.0
 1999 335   103  18.00  32.00  17.70  4.354  4.284  3.510  0.773  0.000  239.1  119.0  120.1    0.0
 1999 336   104   9.00  22.70  14.30  1.903  1.903  1.235  0.668  0.000  241.0  120.2  120.8    0.0
 1999 337   105  20.40  24.80  13.80  4.409  4.409  2.856  1.553  0.000  245.4  123.1  122.3    0.0
 1999 338   106  31.10  30.50  15.60  7.282  7.282  4.730  2.552  0.000  252.7  127.8  124.9    0.0
 1999 339   107  13.40  22.00  10.90  2.728  2.728  1.777  0.950  0.000  255.4  129.6  125.8    0.0
 1999 340   108  32.30  21.80   7.90  6.389  6.389  4.161  2.228  0.000  261.8  133.8  128.1    0.0
 1999 341   109  24.30  22.60   8.00  4.862  4.819  3.126  1.693  0.000  266.7  136.9  129.8    0.0
 1999 342   110  31.10  26.80  10.50  6.701  6.290  4.440  1.850  0.000  272.9  141.3  131.6    0.0
 1999 343   111  31.90  29.00  12.10  7.147  6.197  3.703  2.495  0.000  279.1  145.0  134.1    0.0
 1999 344   112  32.10  29.70  14.10  7.366  4.692  3.276  1.416  0.000  283.8  148.3  135.5    0.0
 1999 345   113  25.30  30.40  15.20  5.903  2.882  2.833  0.049  0.000  286.7  151.1  135.6    0.0
 1999 346   114  14.00  26.80  17.20  3.184  2.527  2.490  0.037  0.000  289.2  153.6  135.6    0.0
 1999 347   115  16.10  26.00  15.80  3.590  3.590  2.297  1.294  0.000  292.8  155.9  136.9    0.0
 1999 348   116  31.40  27.90  14.50  7.093  7.093  4.498  2.595  0.000  299.9  160.4  139.5    0.0
 1999 349   117  31.40  30.60  16.20  7.421  5.258  2.738  2.520  0.000  305.2  163.2  142.0    0.0
 1999 350   118  32.50  31.70  14.30  7.679  5.249  2.276  2.973  0.000  310.4  165.4  145.0    0.0
 1999 351   119  31.50  31.40  16.40  7.538  3.473  1.988  1.485  0.000  313.9  167.4  146.5    0.0
 1999 352   120  26.60  34.30  17.40  6.619  2.072  1.780  0.292  0.000  316.0  169.2  146.8    0.0
 1999 353   121  29.70  29.30  19.20  7.096  1.650  1.616  0.034  0.000  317.6  170.8  146.8    0.0
 1999 354   122  31.40  30.60  12.20  7.235  1.508  1.481  0.027  0.000  319.1  172.3  146.8    0.0
 1999 355   123  22.20  31.50  15.60  5.312  1.392  1.370  0.022  0.000  320.5  173.7  146.9    0.0
 1999 356   124  32.30  28.30  15.80  7.487  1.290  1.272  0.018  0.000  321.8  174.9  146.9    0.0
 1999 357   125  32.50  27.70   9.20  7.119  1.201  1.187  0.014  0.000  323.0  176.1  146.9    0.0
 1999 358   126  29.10  34.00  13.60  7.111  1.125  1.114  0.011  0.000  324.1  177.2  146.9    0.0
 1999 359   127  30.90  37.20  17.90  8.883  1.055  1.046  0.009  0.000  325.2  178.3  146.9    0.0
 1999 360   128  20.60  39.40  20.80  6.751  0.991  0.985  0.007  0.000  326.2  179.3  146.9    0.0
 1999 361   129  20.60  38.30  24.30  6.567  0.854  0.849  0.005  0.000  327.0  180.1  146.9    0.0
 1999 362   130   9.10  24.70  21.00  2.141  1.773  0.770  1.003  0.000  328.8  180.9  147.9    0.0
 1999 363   131  14.30  25.00  18.10  3.313  1.707  0.705  1.002  0.000  330.5  181.6  148.9    0.0
 1999 364   132   9.10  25.60  18.00  2.129  1.808  0.606  1.202  0.000  332.3  182.2  150.1    0.0
 1999 365   133  29.10  29.50  14.10  6.933  2.160  0.590  1.571  0.000  334.5  182.8  151.7    0.0
 2000 001   134  31.30  29.80  13.20  7.454  1.179  0.552  0.627  0.000  335.7  183.3  152.3    0.0
 2000 002   135  28.90  30.20  14.00  6.960  0.538  0.538  0.000  0.000  336.2  183.9  152.3    0.0
 2000 003   136  32.10  30.50  13.30  7.718  0.505  0.505  0.000  0.000  336.7  184.4  152.3    0.0
 2000 004   137  28.60  30.70  12.90  6.873  0.493  0.493  0.000  0.000  337.2  184.9  152.3    0.0
 2000 005   138  28.90  32.60  16.30  7.277  0.464  0.464  0.000  0.000  337.7  185.3  152.3    0.0
 2000 006   139  32.10  34.30  15.30  8.176  0.452  0.452  0.000  0.000  338.1  185.8  152.3    0.0
 2000 007   140  31.30  35.60  18.10  8.470  0.427  0.427  0.000  0.000  338.6  186.2  152.3    0.0
 2000 008   141  33.00  37.00  17.40  9.576  0.416  0.416  0.000  0.000  339.0  186.6  152.3    0.0
 2000 009   142  21.20  36.80  20.00  6.197  0.394  0.394  0.000  0.000  339.4  187.0  152.3    0.0
 2000 010   143  25.30  34.20  19.20  6.618  1.183  0.383  0.800  0.000  340.5  187.4  153.1    0.0
 2000 011   144  32.10  34.80  17.60  8.357  1.364  0.364  1.000  0.000  341.9  187.8  154.1    0.0
 2000 012   145  25.60  36.00  18.60  7.104  0.353  0.353  0.000  0.000  342.3  188.1  154.1    0.0
 2000 013   146  29.40  37.20  19.10  8.721  0.337  0.337  0.000  0.000  342.6  188.5  154.1    0.0
 2000 014   147   9.00  24.00  20.70  2.151  1.873  0.479  1.394  0.000  344.5  188.9  155.5    0.0
 2000 015   148  21.90  31.80  21.00  5.782  5.782  1.615  4.167  0.000  350.3  190.6  159.7    0.0
 2000 016   149  22.40  34.00  20.40  6.084  6.084  1.347  4.738  0.000  356.3  191.9  164.4    0.0
 2000 017   150   9.90  28.60  20.60  2.562  2.409  0.637  1.772  0.000  358.7  192.5  166.2    0.0
 2000 018   151  31.00  30.90  16.80  8.056  4.663  1.637  3.027  0.000  363.4  194.2  169.2    0.0
 2000 019   152  30.30  30.90  17.30  7.948  2.750  1.311  1.439  0.000  366.2  195.5  170.7    0.0
 2000 020   153  30.80  34.30  16.30  8.361  2.223  1.115  1.108  0.000  368.4  196.6  171.8    0.0
 2000 021   154  23.60  35.00  17.70  6.543  1.639  0.704  0.935  0.000  370.0  197.3  172.7    0.0
 2000 022   155  12.00  28.00  21.00  3.169  1.099  0.275  0.824  0.000  371.1  197.6  173.5    0.0
 2000 023   156  29.40  28.70  17.60  7.648  1.282  0.536  0.746  0.000  372.4  198.1  174.3    0.0
 2000 024   157  21.40  28.50  17.60  5.566  1.000  0.314  0.686  0.000  373.4  198.4  175.0    0.0

*DSSAT Cropping System Model Ver. 4.0.2.000               Aug 23, 2016; 18:31:31

*RUN   2        : UYSB                    
 MODEL          : CRGRO040 - Soybean         
 EXPERIMENT     : UYSB0335 SB    late to create DSS                             
 TREATMENT  1   : UYSB                    

@YEAR DOY   DAS   SRAA   TMXA   TMNA   EOAA   ETAA   EPAA   ESAA   EFAD   ETAC   EPAC   ESAC   EFAC
 2000 232     0  17.30  27.50   8.20  4.165  1.314  0.000  1.314  0.000    1.3    0.0    1.3    0.0
 2000 233     1   5.00  18.40  14.40  1.130  0.951  0.000  0.951  0.000    2.3    0.0    2.3    0.0
 2000 234     2   8.50  24.00  15.80  2.086  2.086  0.000  2.086  0.000    4.4    0.0    4.4    0.0
 2000 235     3  10.00  25.30  14.70  2.470  2.470  0.000  2.470  0.000    6.8    0.0    6.8    0.0
 2000 236     4   7.60  21.60  15.60  1.808  1.808  0.000  1.808  0.000    8.6    0.0    8.6    0.0
 2000 237     5   5.50  18.00  16.10  1.255  1.255  0.000  1.255  0.000    9.9    0.0    9.9    0.0
 2000 238     6   5.20  16.10  11.80  1.113  1.113  0.000  1.113  0.000   11.0    0.0   11.0    0.0
 2000 239     7  17.20  16.40   7.10  3.538  3.538  0.000  3.538  0.000   14.5    0.0   14.5    0.0
 2000 240     8  19.20  18.90   3.60  3.959  2.413  0.000  2.413  0.000   16.9    0.0   16.9    0.0
 2000 241     9  17.70  11.30   2.00  3.195  1.880  0.000  1.880  0.000   18.8    0.0   18.8    0.0
 2000 242    10  16.60  17.30   2.40  3.305  1.268  0.000  1.268  0.000   20.1    0.0   20.1    0.0
 2000 243    11  17.00  21.40   3.50  3.628  1.025  0.000  1.025  0.000   21.1    0.0   21.1    0.0
 2000 244    12  13.90  15.10   4.80  2.742  0.884  0.000  0.884  0.000   22.0    0.0   22.0    0.0
 2000 245    13  19.20  14.30  -0.90  3.527  0.788  0.000  0.788  0.000   22.8    0.0   22.8    0.0
 2000 246    14  19.30  15.90  -0.80  3.638  0.733  0.015  0.719  0.000   23.5    0.0   23.5    0.0
 2000 247    15  19.60  16.90   0.40  3.799  0.681  0.016  0.665  0.000   24.2    0.0   24.2    0.0
 2000 248    16  20.10  20.40   3.40  4.223  0.640  0.018  0.621  0.000   24.8    0.0   24.8    0.0
 2000 249    17  19.00  20.40   1.10  3.905  0.603  0.018  0.586  0.000   25.4    0.1   25.4    0.0
 2000 250    18  20.50  21.50   3.40  4.373  0.576  0.021  0.555  0.000   26.0    0.1   25.9    0.0
 2000 251    19  19.60  26.00   9.20  4.666  0.552  0.023  0.529  0.000   26.6    0.1   26.5    0.0
 2000 252    20  19.30  27.00  13.10  4.800  0.533  0.026  0.507  0.000   27.1    0.1   27.0    0.0
 2000 253    21   5.90  22.20  13.90  1.393  1.393  0.005  1.388  0.000   28.5    0.1   28.4    0.0
 2000 254    22  11.40  23.80  15.90  2.790  2.790  0.011  2.779  0.000   31.3    0.2   31.1    0.0
 2000 255    23   8.80  21.90  11.30  2.024  2.024  0.009  2.015  0.000   33.3    0.2   33.2    0.0
 2000 256    24  10.50  14.60   7.60  2.112  1.759  0.016  1.744  0.000   35.1    0.2   34.9    0.0
 2000 257    25   6.10   9.50   6.20  1.118  1.118  0.005  1.113  0.000   36.2    0.2   36.0    0.0
 2000 258    26   6.20  10.70   7.90  1.179  1.179  0.006  1.174  0.000   37.4    0.2   37.2    0.0
 2000 259    27   7.70  14.60   9.10  1.571  1.571  0.007  1.564  0.000   38.9    0.2   38.7    0.0
 2000 260    28  13.50  16.70  10.50  2.876  2.876  0.014  2.862  0.000   41.8    0.2   41.6    0.0
 2000 261    29  14.50  19.40   8.00  3.133  2.056  0.026  2.031  0.000   43.9    0.2   43.6    0.0
 2000 262    30   6.30  18.00  14.60  1.417  1.417  0.007  1.410  0.000   45.3    0.2   45.1    0.0
 2000 263    31  14.80  21.20  14.80  3.475  3.475  0.019  3.456  0.000   48.8    0.3   48.5    0.0
 2000 264    32   9.60  21.40  13.20  2.229  2.229  0.013  2.216  0.000   51.0    0.3   50.7    0.0
 2000 265    33   9.20  17.50  12.60  2.019  2.019  0.013  2.006  0.000   53.0    0.3   52.7    0.0
 2000 266    34  23.10  19.00   8.20  4.971  3.731  0.059  3.672  0.000   56.7    0.3   56.4    0.0
 2000 267    35  15.30  21.30   8.10  3.393  2.105  0.043  2.062  0.000   58.9    0.4   58.5    0.0
 2000 268    36  20.70  12.60   5.70  3.960  2.108  0.055  2.053  0.000   61.0    0.4   60.5    0.0
 2000 269    37  22.80  13.40   2.00  4.249  1.373  0.060  1.313  0.000   62.3    0.5   61.8    0.0
 2000 270    38  21.90  16.20   2.10  4.266  1.109  0.061  1.048  0.000   63.4    0.6   62.9    0.0
 2000 271    39  23.50  24.10   6.40  5.325  0.977  0.079  0.898  0.000   64.4    0.6   63.8    0.0
 2000 272    40  23.30  26.00  10.30  5.589  0.888  0.089  0.799  0.000   65.3    0.7   64.6    0.0
 2000 273    41  19.60  26.70  11.50  4.787  0.811  0.084  0.727  0.000   66.1    0.8   65.3    0.0
 2000 274    42  18.90  25.40  13.70  4.624  4.624  0.056  4.568  0.000   70.7    0.9   69.9    0.0
 2000 275    43  17.80  24.60  15.00  4.357  3.248  0.097  3.151  0.000   74.0    1.0   73.0    0.0
 2000 276    44   7.00  18.60  15.90  1.601  1.601  0.025  1.576  0.000   75.6    1.0   74.6    0.0
 2000 277    45  10.50  20.60  13.10  2.405  2.405  0.041  2.364  0.000   78.0    1.0   77.0    0.0
 2000 278    46  19.50  18.30  12.10  4.294  4.111  0.127  3.984  0.000   82.1    1.2   80.9    0.0
 2000 279    47  24.30  18.40   7.40  5.133  3.331  0.161  3.170  0.000   85.4    1.3   84.1    0.0
 2000 280    48  25.00  18.60   5.10  5.181  1.614  0.169  1.445  0.000   87.1    1.5   85.6    0.0
 2000 281    49  23.90  21.70   6.70  5.246  1.288  0.178  1.110  0.000   88.3    1.7   86.7    0.0
 2000 282    50  24.90  22.60   9.90  5.686  5.007  0.207  4.800  0.000   93.3    1.9   91.5    0.0
 2000 283    51   7.50  18.10  12.20  1.646  1.646  0.041  1.605  0.000   95.0    1.9   93.1    0.0
 2000 284    52  24.80  18.20   9.10  5.298  5.077  0.226  4.852  0.000  100.1    2.1   97.9    0.0
 2000 285    53  25.40  21.20   8.00  5.594  3.324  0.251  3.073  0.000  103.4    2.4  101.0    0.0
 2000 286    54  23.00  27.20  16.20  5.839  1.719  0.278  1.441  0.000  105.1    2.7  102.4    0.0
 2000 287    55  23.10  21.80  11.90  5.298  1.389  0.280  1.109  0.000  106.5    3.0  103.5    0.0
 2000 288    56   7.50  19.70  13.80  1.701  1.032  0.096  0.936  0.000  107.5    3.1  104.5    0.0
 2000 289    57   8.20  19.90  12.40  1.841  1.841  0.071  1.770  0.000  109.4    3.1  106.3    0.0
 2000 290    58  11.40  23.30  14.40  2.716  2.665  0.176  2.488  0.000  112.0    3.3  108.7    0.0
 2000 291    59  11.30  22.00  16.50  2.693  2.693  0.121  2.572  0.000  114.7    3.4  111.3    0.0
 2000 292    60   7.80  23.60  16.30  1.891  1.847  0.144  1.703  0.000  116.6    3.6  113.0    0.0
 2000 293    61  13.30  19.70  16.50  3.075  3.075  0.162  2.913  0.000  119.7    3.7  115.9    0.0
 2000 294    62   7.80  26.60  15.60  1.946  1.946  0.110  1.836  0.000  121.6    3.8  117.8    0.0
 2000 295    63  20.50  27.50  15.20  5.143  3.898  0.510  3.388  0.000  125.5    4.3  121.2    0.0
 2000 296    64   8.10  19.70  16.10  1.858  1.858  0.139  1.718  0.000  127.4    4.5  122.9    0.0
 2000 297    65   8.20  18.80  14.70  1.834  1.834  0.150  1.684  0.000  129.2    4.6  124.6    0.0
 2000 298    66   7.90  22.00  14.20  1.830  1.830  0.162  1.669  0.000  131.0    4.8  126.2    0.0
 2000 299    67  13.70  22.00  16.60  3.232  3.232  0.313  2.918  0.000  134.3    5.1  129.1    0.0
 2000 300    68  11.80  23.90  18.10  2.875  2.875  0.316  2.560  0.000  137.1    5.4  131.7    0.0
 2000 301    69  27.40  24.80  12.50  6.430  5.944  1.198  4.746  0.000  143.1    6.6  136.4    0.0
 2000 302    70  27.50  20.10   9.20  5.890  3.643  1.212  2.430  0.000  146.7    7.8  138.9    0.0
 2000 303    71  28.70  17.90   7.40  5.857  2.657  1.273  1.383  0.000  149.4    9.1  140.3    0.0
 2000 304    72  28.40  27.10   9.50  6.650  2.584  1.502  1.082  0.000  152.0   10.6  141.3    0.0
 2000 305    73  26.70  26.60  12.40  6.341  2.493  1.574  0.920  0.000  154.4   12.2  142.3    0.0
 2000 306    74   8.20  24.70  14.60  1.929  1.929  0.381  1.548  0.000  156.4   12.6  143.8    0.0
 2000 307    75  20.50  22.50  13.80  4.647  4.647  1.019  3.628  0.000  161.0   13.6  147.4    0.0
 2000 308    76  29.60  23.40   9.40  6.515  5.414  2.121  3.293  0.000  166.4   15.7  150.7    0.0
 2000 309    77  18.60  22.00  10.60  4.049  3.220  1.405  1.815  0.000  169.7   17.1  152.5    0.0
 2000 310    78  28.70  23.90  10.60  6.383  3.587  2.339  1.248  0.000  173.2   19.5  153.8    0.0
 2000 311    79  25.80  24.90  13.20  5.915  3.317  2.302  1.014  0.000  176.6   21.8  154.8    0.0
 2000 312    80  11.90  23.60  15.00  2.714  2.714  1.114  1.600  0.000  179.3   22.9  156.4    0.0
 2000 313    81  15.90  25.00  17.00  3.732  2.582  1.655  0.927  0.000  181.9   24.5  157.3    0.0
 2000 314    82   8.80  20.70  16.40  1.942  1.739  0.921  0.819  0.000  183.6   25.4  158.2    0.0
 2000 315    83  24.80  23.40  13.80  5.523  3.466  2.725  0.741  0.000  187.1   28.2  158.9    0.0
 2000 316    84  22.70  25.60  14.30  5.196  5.196  2.076  3.120  0.000  192.3   30.2  162.0    0.0
 2000 317    85  22.20  25.80  17.10  5.188  5.188  2.222  2.965  0.000  197.4   32.5  165.0    0.0
 2000 318    86  20.20  21.60  12.40  4.298  4.298  1.879  2.419  0.000  201.7   34.3  167.4    0.0
 2000 319    87  24.90  16.00   7.90  4.704  4.546  2.746  1.799  0.000  206.3   37.1  169.2    0.0
 2000 320    88  22.80  16.60   5.00  4.222  3.730  2.487  1.244  0.000  210.0   39.6  170.4    0.0
 2000 321    89  30.40  22.50   6.30  6.183  4.684  3.672  1.012  0.000  214.7   43.3  171.5    0.0
 2000 322    90  30.30  25.80   9.10  6.575  4.855  3.979  0.875  0.000  219.6   47.2  172.3    0.0
 2000 323    91  30.30  27.90  10.00  6.782  4.983  4.201  0.783  0.000  224.5   51.4  173.1    0.0
 2000 324    92  28.80  29.50  12.70  6.694  6.657  4.257  2.400  0.000  231.2   55.7  175.5    0.0
 2000 325    93  32.00  21.30  10.60  6.593  5.074  4.308  0.766  0.000  236.3   60.0  176.3    0.0
 2000 326    94  30.90  26.40   8.90  6.687  5.134  4.433  0.701  0.000  241.4   64.4  177.0    0.0
 2000 327    95  23.90  28.20  14.80  5.529  4.385  3.734  0.651  0.000  245.8   68.2  177.6    0.0
 2000 328    96  25.60  32.30  16.40  6.263  6.263  3.349  2.914  0.000  252.1   71.5  180.5    0.0
 2000 329    97  16.60  20.50  13.00  3.430  3.430  1.875  1.555  0.000  255.5   73.4  182.1    0.0
 2000 330    98  29.80  23.40   8.70  6.154  6.154  3.889  2.265  0.000  261.6   77.3  184.4    0.0
 2000 331    99  31.20  27.90  12.40  7.016  7.016  4.173  2.842  0.000  268.7   81.5  187.2    0.0
 2000 332   100  12.60  27.60  14.50  2.867  2.867  1.619  1.248  0.000  271.5   83.1  188.5    0.0
 2000 333   101   8.90  21.20  17.30  1.916  1.916  1.095  0.820  0.000  273.4   84.2  189.3    0.0
 2000 334   102  15.00  21.00  12.30  3.086  3.086  2.008  1.078  0.000  276.5   86.2  190.4    0.0
 2000 335   103  30.70  22.50  10.30  6.326  5.599  4.682  0.917  0.000  282.1   90.9  191.3    0.0
 2000 336   104  26.30  23.80   8.80  5.438  4.853  4.042  0.812  0.000  287.0   94.9  192.1    0.0
 2000 337   105  30.90  27.20  11.70  6.822  5.832  5.096  0.736  0.000  292.8  100.0  192.8    0.0
 2000 338   106  20.00  27.60  12.40  4.458  4.458  2.631  1.827  0.000  297.3  102.6  194.6    0.0
 2000 339   107  12.90  21.80  14.40  2.721  2.721  1.617  1.104  0.000  300.0  104.2  195.7    0.0
 2000 340   108  28.90  23.10  11.90  6.066  6.066  3.644  2.422  0.000  306.1  107.9  198.2    0.0
 2000 341   109  27.70  30.30  11.50  6.320  6.320  3.784  2.536  0.000  312.4  111.7  200.7    0.0
 2000 342   110  26.00  31.20  16.20  6.207  6.175  4.405  1.770  0.000  318.6  116.1  202.5    0.0
 2000 343   111  19.80  32.30  17.90  4.842  4.842  3.607  1.234  0.000  323.4  119.7  203.7    0.0
 2000 344   112  31.40  31.80  19.50  7.723  6.939  5.932  1.007  0.000  330.3  125.6  204.7    0.0
 2000 345   113  24.60  29.30  16.50  5.757  5.304  4.432  0.872  0.000  335.6  130.0  205.6    0.0
 2000 346   114  17.60  29.90  19.10  4.227  4.037  3.257  0.780  0.000  339.7  133.3  206.4    0.0
 2000 347   115  23.40  32.50  16.00  5.653  5.067  4.354  0.713  0.000  344.7  137.7  207.1    0.0
 2000 348   116  28.50  33.60  20.50  7.193  6.826  5.539  1.287  0.000  351.6  143.2  208.4    0.0
 2000 349   117  22.70  29.60  20.30  5.483  5.483  3.324  2.159  0.000  357.0  146.5  210.5    0.0
 2000 350   118  22.20  29.40  15.50  5.164  5.164  3.125  2.038  0.000  362.2  149.6  212.6    0.0
 2000 351   119  32.20  21.10   9.80  6.462  6.462  3.903  2.559  0.000  368.7  153.5  215.1    0.0
 2000 352   120  31.50  25.00  10.20  6.670  6.670  4.517  2.152  0.000  375.3  158.1  217.3    0.0
 2000 353   121  32.20  29.20  13.20  7.347  7.347  4.517  2.830  0.000  382.7  162.6  220.1    0.0
 2000 354   122  26.60  26.60  11.10  5.790  5.790  4.363  1.427  0.000  388.5  166.9  221.5    0.0
 2000 355   123  29.70  29.00  12.60  6.733  6.733  4.253  2.480  0.000  395.2  171.2  224.0    0.0
 2000 356   124   9.70  21.00  15.50  2.044  2.044  1.217  0.827  0.000  397.3  172.4  224.8    0.0
 2000 357   125  29.30  29.60  15.70  6.853  6.853  4.363  2.491  0.000  404.1  176.8  227.3    0.0
 2000 358   126  12.60  20.30  15.30  2.629  2.629  1.866  0.763  0.000  406.7  178.6  228.1    0.0
 2000 359   127  28.50  26.30  11.10  6.190  6.190  3.646  2.544  0.000  412.9  182.3  230.6    0.0
 2000 360   128  28.00  31.40  19.00  6.853  6.734  5.128  1.606  0.000  419.7  187.4  232.2    0.0
 2000 361   129  30.90  35.10  20.70  7.997  7.997  4.672  3.325  0.000  427.7  192.1  235.6    0.0
 2000 362   130   9.10  28.20  17.20  2.123  2.123  1.235  0.888  0.000  429.8  193.3  236.5    0.0
 2000 363   131  16.00  26.00  16.10  3.609  3.609  2.090  1.520  0.000  433.4  195.4  238.0    0.0
 2000 364   132  15.80  23.90  16.00  3.475  3.475  2.003  1.472  0.000  436.9  197.4  239.5    0.0
 2000 365   133  29.60  26.20  14.50  6.615  6.615  3.797  2.818  0.000  443.5  201.2  242.3    0.0
 2000 366   134  30.60  29.40  15.90  7.177  7.177  4.647  2.530  0.000  450.7  205.9  244.8    0.0
 2001 001   135  31.30  29.90  16.50  7.419  7.419  4.644  2.775  0.000  458.1  210.5  247.6    0.0
 2001 002   136  30.60  30.00  16.20  7.248  6.684  5.261  1.422  0.000  464.8  215.8  249.0    0.0
 2001 003   137  30.40  32.50  15.80  7.385  6.438  5.338  1.100  0.000  471.2  221.1  250.1    0.0
 2001 004   138  19.70  33.10  21.90  5.032  5.032  2.820  2.212  0.000  476.2  223.9  252.3    0.0
 2001 005   139  30.40  32.20  20.60  7.627  7.627  4.251  3.375  0.000  483.9  228.2  255.7    0.0
 2001 006   140  29.10  33.80  20.90  7.444  7.444  4.127  3.317  0.000  491.3  232.3  259.0    0.0
 2001 007   141  11.60  28.40  21.30  2.810  2.810  1.549  1.261  0.000  494.1  233.9  260.3    0.0
 2001 008   142  20.20  28.40  17.80  4.770  4.770  2.615  2.155  0.000  498.9  236.5  262.4    0.0
 2001 009   143  26.00  29.90  17.40  6.229  6.229  3.395  2.834  0.000  505.1  239.9  265.3    0.0
 2001 010   144   9.00  22.70  16.10  1.964  1.964  1.064  0.900  0.000  507.1  240.9  266.2    0.0
 2001 011   145  32.10  22.60  13.00  6.821  6.821  3.676  3.145  0.000  513.9  244.6  269.3    0.0
 2001 012   146  31.60  23.70   9.90  6.637  6.637  4.007  2.630  0.000  520.5  248.6  271.9    0.0
 2001 013   147  23.50  27.60  13.10  5.317  5.317  3.298  2.020  0.000  525.9  251.9  273.9    0.0
 2001 014   148  17.00  30.30  20.40  4.193  4.193  2.222  1.971  0.000  530.0  254.1  275.9    0.0
 2001 015   149  25.70  28.30  20.60  6.214  6.214  3.272  2.942  0.000  536.3  257.4  278.9    0.0
 2001 016   150  23.10  29.90  19.80  5.654  5.654  3.601  2.053  0.000  541.9  261.0  280.9    0.0
 2001 017   151  14.90  26.50  20.10  3.522  3.522  1.830  1.692  0.000  545.4  262.8  282.6    0.0
 2001 018   152  12.60  25.00  21.50  2.961  2.961  1.528  1.433  0.000  548.4  264.4  284.0    0.0
 2001 019   153  14.80  26.40  18.00  3.443  3.443  1.765  1.678  0.000  551.8  266.1  285.7    0.0
 2001 020   154  30.30  25.80  14.10  6.793  6.575  4.483  2.093  0.000  558.4  270.6  287.8    0.0
 2001 021   155  30.60  26.30  12.40  6.812  6.571  4.469  2.102  0.000  565.0  275.1  289.9    0.0
 2001 022   156  13.90  28.10  14.80  3.223  3.223  1.899  1.324  0.000  568.2  277.0  291.2    0.0
 2001 023   157  30.60  30.50  17.90  7.467  5.895  4.842  1.053  0.000  574.1  281.8  292.3    0.0
 2001 024   158  29.90  32.20  16.30  7.351  5.639  4.738  0.902  0.000  579.7  286.6  293.2    0.0
 2001 025   159  28.50  32.30  19.70  7.193  5.409  4.608  0.801  0.000  585.2  291.2  294.0    0.0
 2001 026   160  22.70  33.40  20.30  5.824  5.824  3.261  2.564  0.000  591.0  294.4  296.6    0.0
 2001 027   161   9.90  25.50  21.60  2.354  2.354  1.146  1.207  0.000  593.3  295.6  297.8    0.0
 2001 028   162   8.70  21.60  18.50  1.930  1.930  0.934  0.996  0.000  595.3  296.5  298.8    0.0
 2001 029   163  28.00  26.90  12.20  6.373  6.373  2.680  3.693  0.000  601.6  299.2  302.4    0.0
 2001 030   164  29.30  26.40  15.70  6.898  5.799  3.213  2.586  0.000  607.4  302.4  305.0    0.0
 2001 031   165  26.50  30.50  18.10  6.729  4.451  2.642  1.809  0.000  611.9  305.0  306.8    0.0
 2001 032   166  18.70  30.20  20.80  4.874  2.842  1.596  1.246  0.000  614.7  306.6  308.1    0.0
 2001 033   167  28.80  32.40  20.60  7.740  3.108  2.095  1.013  0.000  617.8  308.7  309.1    0.0
 2001 034   168  26.00  25.70  17.20  6.370  2.291  1.415  0.876  0.000  620.1  310.1  310.0    0.0
 2001 035   169  29.50  28.60  14.10  7.342  2.115  1.331  0.783  0.000  622.2  311.5  310.8    0.0
 2001 036   170  28.60  27.50  18.70  7.317  1.792  1.077  0.715  0.000  624.0  312.6  311.5    0.0
 2001 037   171  29.30  31.60  16.20  7.734  1.587  0.926  0.662  0.000  625.6  313.5  312.1    0.0
 2001 038   172  29.30  34.30  20.30  8.225  1.416  0.798  0.619  0.000  627.0  314.3  312.8    0.0
 2001 039   173  12.40  29.90  20.30  3.331  3.331  0.167  3.164  0.000  630.4  314.4  315.9    0.0

*DSSAT Cropping System Model Ver. 4.0.2.000               Aug 23, 2016; 18:31:31

*RUN   3        : UYSB                    
 MODEL          : CRGRO040 - Soybean         
 EXPERIMENT     : UYSB0335 SB    late to create DSS                             
 TREATMENT  1   : UYSB                    

@YEAR DOY   DAS   SRAA   TMXA   TMNA   EOAA   ETAA   EPAA   ESAA   EFAD   ETAC   EPAC   ESAC   EFAC
 2001 232     0  15.90  16.40   5.20  3.211  3.211  0.000  3.211  0.000    3.2    0.0    3.2    0.0
 2001 233     1  17.50  17.10   2.50  3.477  2.532  0.000  2.532  0.000    5.7    0.0    5.7    0.0
 2001 234     2  17.20  17.80   6.00  3.572  3.149  0.000  3.149  0.000    8.9    0.0    8.9    0.0
 2001 235     3  10.00  16.90   8.10  2.091  1.149  0.000  1.149  0.000   10.0    0.0   10.0    0.0
 2001 236     4   8.90  20.00   9.80  1.973  0.143  0.000  0.143  0.000   10.2    0.0   10.2    0.0
 2001 237     5  15.50  22.10   7.20  3.453  0.138  0.000  0.138  0.000   10.3    0.0   10.3    0.0
 2001 238     6  11.20  28.30  14.30  2.858  0.133  0.000  0.133  0.000   10.5    0.0   10.5    0.0
 2001 239     7  12.80  20.40   6.50  2.769  2.769  0.000  2.769  0.000   13.2    0.0   13.2    0.0
 2001 240     8  14.10  16.00   4.80  2.819  2.819  0.000  2.819  0.000   16.0    0.0   16.0    0.0
 2001 241     9  18.30  23.20   8.30  4.176  2.617  0.000  2.617  0.000   18.7    0.0   18.7    0.0
 2001 242    10  16.60  25.40  13.30  4.060  3.101  0.000  3.101  0.000   21.8    0.0   21.8    0.0
 2001 243    11   6.40  22.00  17.40  1.553  1.553  0.000  1.553  0.000   23.3    0.0   23.3    0.0
 2001 244    12   5.50  19.00  16.30  1.274  1.274  0.000  1.274  0.000   24.6    0.0   24.6    0.0
 2001 245    13   5.50  16.30  13.50  1.199  1.199  0.000  1.199  0.000   25.8    0.0   25.8    0.0
 2001 246    14   5.60  15.20  13.20  1.199  1.199  0.003  1.196  0.000   27.0    0.0   27.0    0.0
 2001 247    15   5.60  13.60  10.00  1.137  1.137  0.003  1.134  0.000   28.1    0.0   28.1    0.0
 2001 248    16   9.10  16.00   9.20  1.897  1.897  0.005  1.892  0.000   30.0    0.0   30.0    0.0
 2001 249    17   8.40  18.10  10.60  1.827  1.827  0.005  1.822  0.000   31.8    0.0   31.8    0.0
 2001 250    18   5.80  17.30  14.30  1.290  1.290  0.004  1.286  0.000   33.1    0.0   33.1    0.0
 2001 251    19  20.50  18.10   9.20  4.401  4.401  0.015  4.387  0.000   37.5    0.0   37.5    0.0
 2001 252    20  10.00  15.90   7.10  2.040  1.362  0.012  1.351  0.000   38.9    0.0   38.9    0.0
 2001 253    21  19.60  17.20   5.40  4.009  2.646  0.023  2.623  0.000   41.5    0.1   41.5    0.0
 2001 254    22  20.90  17.00   5.70  4.274  1.434  0.026  1.408  0.000   43.0    0.1   42.9    0.0
 2001 255    23  16.10  19.70   3.80  3.361  2.421  0.021  2.400  0.000   45.4    0.1   45.3    0.0
 2001 256    24  15.70  21.30   7.70  3.472  1.233  0.022  1.211  0.000   46.6    0.1   46.5    0.0
 2001 257    25  12.60  15.70   7.20  2.565  1.011  0.017  0.994  0.000   47.6    0.2   47.5    0.0
 2001 258    26  16.70  13.90   5.20  3.245  1.302  0.022  1.280  0.000   48.9    0.2   48.8    0.0
 2001 259    27  14.40  12.00   5.00  2.712  0.921  0.019  0.902  0.000   49.9    0.2   49.7    0.0
 2001 260    28  19.40  16.20   2.90  3.814  0.829  0.027  0.802  0.000   50.7    0.2   50.5    0.0
 2001 261    29  21.10  22.50   6.20  4.679  0.763  0.034  0.729  0.000   51.5    0.3   51.2    0.0
 2001 262    30  16.10  23.20  10.00  3.724  0.701  0.028  0.673  0.000   52.2    0.3   51.9    0.0
 2001 263    31  21.70  25.50  11.80  5.243  0.670  0.042  0.628  0.000   52.8    0.3   52.5    0.0
 2001 264    32  10.90  25.00  14.50  2.675  0.614  0.023  0.591  0.000   53.4    0.4   53.1    0.0
 2001 265    33  15.90  25.80  12.80  3.887  0.595  0.035  0.560  0.000   54.0    0.4   53.7    0.0
 2001 266    34  13.40  23.50  14.50  3.229  0.568  0.035  0.533  0.000   54.6    0.4   54.2    0.0
 2001 267    35  11.90  26.40  16.70  3.020  3.020  0.023  2.997  0.000   57.6    0.4   57.2    0.0
 2001 268    36   6.60  19.30  11.20  1.465  1.465  0.013  1.451  0.000   59.1    0.5   58.6    0.0
 2001 269    37   9.90  17.50  10.40  2.128  1.574  0.033  1.541  0.000   60.7    0.5   60.2    0.0
 2001 270    38   6.70  15.30   9.80  1.389  1.389  0.014  1.374  0.000   62.1    0.5   61.5    0.0
 2001 271    39   6.90  21.00  13.60  1.598  1.598  0.017  1.581  0.000   63.7    0.5   63.1    0.0
 2001 272    40  12.00  21.30  16.00  2.845  2.845  0.033  2.812  0.000   66.5    0.6   65.9    0.0
 2001 273    41   6.90  19.10  16.20  1.593  1.593  0.021  1.572  0.000   68.1    0.6   67.5    0.0
 2001 274    42   6.90  19.00  16.30  1.592  1.592  0.024  1.568  0.000   69.7    0.6   69.1    0.0
 2001 275    43   8.10  17.80  14.00  1.803  1.803  0.029  1.774  0.000   71.5    0.6   70.9    0.0
 2001 276    44   7.90  19.60  13.30  1.789  1.789  0.031  1.758  0.000   73.3    0.7   72.6    0.0
 2001 277    45  13.20  21.20  14.20  3.074  3.074  0.058  3.016  0.000   76.3    0.7   75.6    0.0
 2001 278    46  19.20  19.60  13.40  4.349  3.892  0.142  3.750  0.000   80.2    0.9   79.4    0.0
 2001 279    47  17.00  20.20  13.50  3.882  2.955  0.139  2.817  0.000   83.2    1.0   82.2    0.0
 2001 280    48   7.20  19.30  14.80  1.643  1.643  0.040  1.602  0.000   84.8    1.0   83.8    0.0
 2001 281    49  11.90  19.30  14.30  2.702  2.702  0.073  2.629  0.000   87.5    1.1   86.4    0.0
 2001 282    50  12.20  17.20  13.70  2.679  2.679  0.078  2.601  0.000   90.2    1.2   89.0    0.0
 2001 283    51  23.50  23.60  10.30  5.444  3.500  0.268  3.232  0.000   93.7    1.5   92.3    0.0
 2001 284    52  25.30  21.40  13.10  5.833  1.896  0.308  1.588  0.000   95.6    1.8   93.8    0.0
 2001 285    53  13.60  20.60  12.60  3.088  1.344  0.174  1.170  0.000   97.0    1.9   95.0    0.0
 2001 286    54  21.10  23.30  10.90  4.885  1.269  0.298  0.971  0.000   98.2    2.2   96.0    0.0
 2001 287    55  20.40  24.20  13.50  4.878  1.169  0.320  0.849  0.000   99.4    2.6   96.8    0.0
 2001 288    56   7.50  20.20  16.60  1.749  1.749  0.079  1.670  0.000  101.1    2.6   98.5    0.0
 2001 289    57  10.10  22.60  16.60  2.425  2.425  0.119  2.306  0.000  103.6    2.8  100.8    0.0
 2001 290    58  16.10  24.00  15.50  3.893  3.893  0.206  3.688  0.000  107.5    3.0  104.5    0.0
 2001 291    59  15.50  27.30  15.50  3.891  3.485  0.368  3.117  0.000  110.9    3.3  107.6    0.0
 2001 292    60  21.10  26.40  16.20  5.259  3.360  0.574  2.787  0.000  114.3    3.9  110.4    0.0
 2001 293    61  19.90  27.60  15.00  4.970  4.806  0.627  4.179  0.000  119.1    4.5  114.6    0.0
 2001 294    62  23.00  19.10  10.70  4.971  3.694  0.718  2.976  0.000  122.8    5.3  117.6    0.0
 2001 295    63  27.50  19.10   8.50  5.820  2.327  0.891  1.436  0.000  125.1    6.1  119.0    0.0
 2001 296    64  26.40  23.00   7.20  5.812  2.043  0.937  1.106  0.000  127.2    7.1  120.1    0.0
 2001 297    65  25.80  26.90  10.50  6.124  1.997  1.062  0.934  0.000  129.2    8.1  121.0    0.0
 2001 298    66  26.30  32.40  14.30  6.832  2.142  1.318  0.824  0.000  131.3    9.5  121.9    0.0
 2001 299    67   8.90  22.60  18.90  2.131  2.131  0.324  1.808  0.000  133.4    9.8  123.7    0.0
 2001 300    68   8.00  20.60  18.50  1.857  1.857  0.321  1.536  0.000  135.3   10.1  125.2    0.0
 2001 301    69   8.00  23.40  18.40  1.913  1.913  0.366  1.546  0.000  137.2   10.5  126.7    0.0
 2001 302    70   8.20  23.80  18.00  1.955  1.955  0.421  1.535  0.000  139.2   10.9  128.3    0.0
 2001 303    71  26.70  21.50  13.80  5.956  5.956  1.455  4.501  0.000  145.1   12.3  132.8    0.0
 2001 304    72  28.60  22.20  12.00  6.320  5.642  2.178  3.464  0.000  150.8   14.5  136.2    0.0
 2001 305    73  28.70  24.00  10.40  6.382  3.778  2.328  1.450  0.000  154.5   16.9  137.7    0.0
 2001 306    74  24.30  21.70  11.20  5.266  3.146  2.033  1.112  0.000  157.7   18.9  138.8    0.0
 2001 307    75  28.70  22.50  10.20  6.213  3.451  2.513  0.938  0.000  161.1   21.4  139.7    0.0
 2001 308    76  28.60  23.80  11.30  6.336  3.507  2.681  0.826  0.000  164.7   24.1  140.6    0.0
 2001 309    77  26.20  28.70  12.30  6.190  3.499  2.752  0.747  0.000  168.2   26.8  141.3    0.0
 2001 310    78  11.90  26.60  16.90  2.832  2.832  1.110  1.722  0.000  171.0   27.9  143.0    0.0
 2001 311    79   8.40  17.80  15.00  1.759  1.759  0.744  1.015  0.000  172.7   28.7  144.1    0.0
 2001 312    80  18.80  21.70  13.40  4.076  4.076  1.606  2.469  0.000  176.8   30.3  146.5    0.0
 2001 313    81  20.10  24.10  12.30  4.438  4.438  1.802  2.636  0.000  181.3   32.1  149.2    0.0
 2001 314    82  10.60  25.30  17.10  2.462  2.462  1.029  1.433  0.000  183.7   33.1  150.6    0.0
 2001 315    83  29.80  25.80  13.00  6.718  6.718  2.917  3.801  0.000  190.4   36.0  154.4    0.0
 2001 316    84  28.10  27.90  14.10  6.532  6.278  3.811  2.467  0.000  196.7   39.9  156.9    0.0
 2001 317    85  10.20  24.00  15.50  2.283  2.283  1.057  1.226  0.000  199.0   40.9  158.1    0.0
 2001 318    86  20.50  24.30  16.80  4.642  4.503  2.867  1.636  0.000  203.5   43.8  159.7    0.0
 2001 319    87  28.90  25.00  13.70  6.423  5.248  4.060  1.188  0.000  208.7   47.8  160.9    0.0
 2001 320    88  26.60  20.00  11.50  5.437  4.494  3.512  0.981  0.000  213.2   51.3  161.9    0.0
 2001 321    89  29.50  24.50   8.00  6.195  4.899  4.043  0.856  0.000  218.1   55.4  162.8    0.0
 2001 322    90  29.80  29.00  11.50  6.798  5.253  4.485  0.768  0.000  223.4   59.9  163.5    0.0
 2001 323    91  23.20  30.00  14.50  5.472  4.366  3.662  0.703  0.000  227.8   63.5  164.2    0.0
 2001 324    92  29.70  32.60  15.10  7.232  5.568  4.916  0.653  0.000  233.3   68.5  164.9    0.0
 2001 325    93  14.10  26.80  19.60  3.324  2.895  2.283  0.611  0.000  236.2   70.7  165.5    0.0
 2001 326    94  23.20  29.60  17.40  5.546  4.428  3.851  0.577  0.000  240.7   74.6  166.1    0.0
 2001 327    95  27.40  33.30  18.50  6.867  5.365  4.817  0.548  0.000  246.0   79.4  166.6    0.0
 2001 328    96   8.80  20.20  13.00  1.810  1.810  0.996  0.814  0.000  247.8   80.4  167.4    0.0
 2001 329    97  15.40  19.30  10.10  3.052  3.052  1.679  1.373  0.000  250.9   82.1  168.8    0.0
 2001 330    98   8.80  20.30  16.00  1.859  1.859  1.024  0.835  0.000  252.7   83.1  169.6    0.0
 2001 331    99  29.20  24.80  15.60  6.499  6.499  3.578  2.920  0.000  259.2   86.7  172.6    0.0
 2001 332   100  30.90  23.60  12.10  6.583  6.583  3.921  2.662  0.000  265.8   90.6  175.2    0.0
 2001 333   101  26.10  23.00  12.00  5.513  5.513  3.060  2.452  0.000  271.3   93.7  177.7    0.0
 2001 334   102   8.90  17.20  12.80  1.755  1.755  0.976  0.778  0.000  273.1   94.6  178.4    0.0
 2001 335   103  29.70  24.20  12.40  6.389  6.389  3.548  2.840  0.000  279.5   98.2  181.3    0.0
 2001 336   104  28.20  25.30  12.80  6.167  6.167  4.155  2.013  0.000  285.6  102.3  183.3    0.0
 2001 337   105  10.70  20.70  13.90  2.230  2.230  1.243  0.987  0.000  287.9  103.6  184.3    0.0
 2001 338   106  10.30  22.30  14.00  2.193  2.193  1.219  0.974  0.000  290.1  104.8  185.3    0.0
 2001 339   107  15.30  22.60  16.60  3.340  3.340  1.853  1.487  0.000  293.4  106.7  186.7    0.0
 2001 340   108  21.60  24.90  15.40  4.802  4.802  3.362  1.441  0.000  298.2  110.0  188.2    0.0
 2001 341   109  26.00  28.30  14.60  5.979  5.368  4.260  1.108  0.000  303.6  114.3  189.3    0.0
 2001 342   110  28.40  18.90  11.50  5.665  4.968  4.033  0.935  0.000  308.5  118.3  190.2    0.0
 2001 343   111  30.30  21.50   5.40  5.926  5.036  4.212  0.825  0.000  313.6  122.5  191.1    0.0
 2001 344   112  28.80  24.60  11.00  6.158  5.115  4.369  0.746  0.000  318.7  126.9  191.8    0.0
 2001 345   113  23.40  25.00  10.50  5.009  4.233  3.547  0.686  0.000  322.9  130.4  192.5    0.0
 2001 346   114  19.60  29.20  15.40  4.586  3.879  3.241  0.639  0.000  326.8  133.7  193.1    0.0
 2001 347   115  19.30  28.10  19.20  4.591  3.835  3.235  0.600  0.000  330.6  136.9  193.7    0.0
 2001 348   116  22.70  26.80  19.10  5.319  4.304  3.736  0.567  0.000  334.9  140.7  194.3    0.0
 2001 349   117  27.00  25.80  16.00  6.108  4.816  4.277  0.540  0.000  339.8  144.9  194.8    0.0
 2001 350   118  24.50  25.70  13.80  5.442  4.316  3.800  0.516  0.000  344.1  148.7  195.4    0.0
 2001 351   119  30.80  28.30  12.90  7.008  5.371  4.876  0.495  0.000  349.4  153.6  195.8    0.0
 2001 352   120  30.70  27.80  13.70  6.990  5.323  4.847  0.476  0.000  354.8  158.5  196.3    0.0
 2001 353   121  18.50  30.00  15.90  4.395  3.498  3.039  0.459  0.000  358.3  161.5  196.8    0.0
 2001 354   122  16.80  31.00  18.70  4.121  3.283  2.838  0.444  0.000  361.6  164.3  197.2    0.0
 2001 355   123   9.10  20.40  15.70  1.927  1.927  1.023  0.904  0.000  363.5  165.4  198.1    0.0
 2001 356   124  28.40  24.30  16.10  6.332  6.332  3.349  2.983  0.000  369.8  168.7  201.1    0.0
 2001 357   125  31.00  26.80  10.40  6.807  6.807  4.028  2.779  0.000  376.6  172.7  203.9    0.0
 2001 358   126  29.70  27.10  13.30  6.701  6.701  3.804  2.897  0.000  383.3  176.5  206.8    0.0
 2001 359   127  31.60  28.30  13.70  7.256  6.336  4.904  1.432  0.000  389.7  181.4  208.2    0.0
 2001 360   128  31.40  30.40  14.50  7.435  6.108  5.004  1.104  0.000  395.8  186.4  209.3    0.0
 2001 361   129  30.20  31.60  17.50  7.413  5.900  4.967  0.933  0.000  401.7  191.4  210.3    0.0
 2001 362   130  28.50  31.00  16.80  6.917  5.436  4.614  0.823  0.000  407.1  196.0  211.1    0.0
 2001 363   131  26.60  30.00  18.60  6.474  5.022  4.277  0.745  0.000  412.1  200.3  211.8    0.0
 2001 364   132  25.90  31.40  18.80  6.413  6.413  3.268  3.144  0.000  418.5  203.6  215.0    0.0
 2001 365   133  19.00  31.30  18.90  4.705  4.705  2.385  2.320  0.000  423.2  206.0  217.3    0.0
 2002 001   134  30.50  28.40  16.80  7.204  7.068  4.710  2.358  0.000  430.3  210.7  219.6    0.0
 2002 002   135  27.00  28.20  17.60  6.405  6.219  4.095  2.124  0.000  436.5  214.8  221.8    0.0
 2002 003   136  30.90  27.40  16.70  7.218  6.000  4.671  1.329  0.000  442.5  219.4  223.1    0.0
 2002 004   137  25.70  28.00  15.90  6.011  4.925  3.870  1.056  0.000  447.5  223.3  224.2    0.0
 2002 005   138   9.10  21.90  18.90  2.029  2.029  1.001  1.028  0.000  449.5  224.3  225.2    0.0
 2002 006   139  18.10  24.80  17.90  4.146  4.146  2.034  2.112  0.000  453.6  226.3  227.3    0.0
 2002 007   140  29.60  23.80  13.70  6.481  6.481  3.162  3.319  0.000  460.1  229.5  230.6    0.0
 2002 008   141  31.30  28.60  11.80  7.155  6.948  4.511  2.437  0.000  467.1  234.0  233.1    0.0
 2002 009   142  27.00  27.20  15.70  6.262  5.975  3.876  2.099  0.000  473.0  237.9  235.1    0.0
 2002 010   143  28.40  29.10  15.70  6.736  5.524  4.201  1.323  0.000  478.6  242.1  236.5    0.0
 2002 011   144  25.50  30.40  18.30  6.260  4.934  3.881  1.053  0.000  483.5  246.0  237.5    0.0
 2002 012   145  30.40  32.30  18.60  7.640  4.544  3.643  0.901  0.000  488.0  249.6  238.4    0.0
 2002 013   146  27.80  32.60  19.80  7.074  5.435  3.064  2.371  0.000  493.5  252.7  240.8    0.0
 2002 014   147  12.90  23.70  14.90  2.860  2.860  1.336  1.524  0.000  496.3  254.0  242.3    0.0
 2002 015   148  29.40  23.30  11.00  6.283  6.283  2.919  3.364  0.000  502.6  256.9  245.7    0.0
 2002 016   149  29.90  24.00  11.30  6.466  5.173  2.642  2.532  0.000  507.8  259.6  248.2    0.0
 2002 017   150  25.10  25.60  12.20  5.585  4.691  2.334  2.357  0.000  512.5  261.9  250.6    0.0
 2002 018   151  29.50  24.90  13.20  6.571  3.460  2.087  1.372  0.000  515.9  264.0  251.9    0.0
 2002 019   152  30.50  28.70  13.40  7.124  2.968  1.891  1.077  0.000  518.9  265.9  253.0    0.0
 2002 020   153  25.20  34.50  17.40  6.470  1.824  1.728  0.096  0.000  520.7  267.6  253.1    0.0
 2002 021   154  18.90  29.00  20.00  4.666  3.091  1.588  1.504  0.000  523.8  269.2  254.6    0.0
 2002 022   155  27.50  32.30  19.30  7.087  2.603  1.468  1.136  0.000  526.4  270.7  255.8    0.0
 2002 023   156  25.00  33.00  17.30  6.471  1.811  1.363  0.447  0.000  528.2  272.0  256.2    0.0
 2002 024   157  13.50  29.40  19.60  3.451  1.198  1.177  0.021  0.000  529.4  273.2  256.2    0.0
 2002 025   158  26.00  29.30  19.30  6.682  6.682  1.362  5.321  0.000  536.1  274.6  261.5    0.0
 2002 026   159  12.60  25.80  18.80  3.125  2.559  0.725  1.834  0.000  538.7  275.3  263.4    0.0
 2002 027   160  17.30  26.60  19.80  4.390  4.256  0.834  3.423  0.000  542.9  276.1  266.8    0.0
 2002 028   161  29.90  31.20  16.40  7.829  4.163  1.211  2.952  0.000  547.1  277.3  269.8    0.0
 2002 029   162  29.70  33.10  16.30  7.968  2.435  1.000  1.435  0.000  549.5  278.3  271.2    0.0
 2002 030   163  27.50  30.90  18.00  7.319  7.246  0.744  6.502  0.000  556.8  279.1  277.7    0.0
 2002 031   164  20.90  27.70  19.10  5.427  3.480  0.446  3.034  0.000  560.3  279.5  280.7    0.0
 2002 032   165  29.80  25.40  16.60  7.410  1.931  0.491  1.439  0.000  562.2  280.0  282.2    0.0

*DSSAT Cropping System Model Ver. 4.0.2.000               Aug 23, 2016; 18:31:31

*RUN   4        : UYSB                    
 MODEL          : CRGRO040 - Soybean         
 EXPERIMENT     : UYSB0335 SB    late to create DSS                             
 TREATMENT  1   : UYSB                    

@YEAR DOY   DAS   SRAA   TMXA   TMNA   EOAA   ETAA   EPAA   ESAA   EFAD   ETAC   EPAC   ESAC   EFAC
 2002 232     0   5.00  13.00   9.60  1.003  1.003  0.000  1.003  0.000    1.0    0.0    1.0    0.0
 2002 233     1  16.60  17.40   7.70  3.483  2.324  0.000  2.324  0.000    3.3    0.0    3.3    0.0
 2002 234     2  18.10  17.60   4.30  3.687  2.169  0.000  2.169  0.000    5.5    0.0    5.5    0.0
 2002 235     3   9.50  21.20  13.00  2.200  1.338  0.000  1.338  0.000    6.8    0.0    6.8    0.0
 2002 236     4  15.40  28.00  15.40  3.949  1.060  0.000  1.060  0.000    7.9    0.0    7.9    0.0
 2002 237     5  16.60  32.00  17.90  4.535  0.906  0.000  0.906  0.000    8.8    0.0    8.8    0.0
 2002 238     6  18.10  32.00  20.20  5.027  0.574  0.000  0.574  0.000    9.4    0.0    9.4    0.0
 2002 239     7  18.10  27.00  18.00  4.680  0.131  0.000  0.131  0.000    9.5    0.0    9.5    0.0
 2002 240     8  14.80  28.20  16.20  3.827  0.126  0.000  0.126  0.000    9.6    0.0    9.6    0.0
 2002 241     9   9.00  18.00  10.30  1.951  1.951  0.000  1.951  0.000   11.6    0.0   11.6    0.0
 2002 242    10  18.40  14.30   6.40  3.645  3.645  0.000  3.645  0.000   15.2    0.0   15.2    0.0
 2002 243    11  16.00  12.00   4.10  2.986  1.961  0.012  1.949  0.000   17.2    0.0   17.2    0.0
 2002 244    12  12.50  10.50   2.90  2.248  2.248  0.006  2.242  0.000   19.4    0.0   19.4    0.0
 2002 245    13  18.70  13.70   0.30  3.444  1.384  0.014  1.370  0.000   20.8    0.0   20.8    0.0
 2002 246    14  17.30  16.20   3.10  3.409  1.090  0.014  1.076  0.000   21.9    0.0   21.9    0.0
 2002 247    15  19.60  20.30   4.20  4.143  0.934  0.018  0.916  0.000   22.8    0.1   22.8    0.0
 2002 248    16  16.90  23.00   7.00  3.800  1.618  0.018  1.600  0.000   24.5    0.1   24.4    0.0
 2002 249    17   5.70  16.70   6.70  1.172  0.808  0.006  0.802  0.000   25.3    0.1   25.2    0.0
 2002 250    18  16.80  15.40   4.80  3.327  3.010  0.017  2.993  0.000   28.3    0.1   28.2    0.0
 2002 251    19  19.00  16.10   4.20  3.779  1.457  0.020  1.437  0.000   29.7    0.1   29.6    0.0
 2002 252    20  19.20  19.00   7.00  4.090  1.129  0.022  1.107  0.000   30.9    0.1   30.7    0.0
 2002 253    21   5.90  18.20   9.50  1.272  1.272  0.004  1.267  0.000   32.1    0.2   32.0    0.0
 2002 254    22   6.00  17.10  15.50  1.345  1.345  0.005  1.340  0.000   33.5    0.2   33.3    0.0
 2002 255    23  18.60  17.40   9.90  3.980  3.980  0.016  3.964  0.000   37.5    0.2   37.3    0.0
 2002 256    24  20.70  18.20   6.90  4.356  2.910  0.029  2.881  0.000   40.4    0.2   40.2    0.0
 2002 257    25  20.40  18.40   7.50  4.329  1.971  0.030  1.941  0.000   42.3    0.2   42.1    0.0
 2002 258    26  14.90  17.10   9.00  3.148  1.307  0.022  1.284  0.000   43.7    0.3   43.4    0.0
 2002 259    27   9.30  18.00  10.20  2.012  1.615  0.015  1.600  0.000   45.3    0.3   45.0    0.0
 2002 260    28   6.30  19.20  15.00  1.445  1.112  0.011  1.101  0.000   46.4    0.3   46.1    0.0
 2002 261    29   6.90  19.10  13.80  1.564  1.564  0.008  1.556  0.000   47.9    0.3   47.7    0.0
 2002 262    30   8.70  20.20   7.50  1.892  1.892  0.010  1.882  0.000   49.8    0.3   49.5    0.0
 2002 263    31  20.70  15.70   5.20  4.132  4.132  0.023  4.109  0.000   54.0    0.3   53.6    0.0
 2002 264    32  21.00  17.70   5.50  4.328  2.625  0.039  2.586  0.000   56.6    0.4   56.2    0.0
 2002 265    33  19.50  21.80   6.00  4.275  1.809  0.039  1.769  0.000   58.4    0.4   58.0    0.0
 2002 266    34  21.90  19.10   8.10  4.716  1.279  0.045  1.234  0.000   59.7    0.4   59.2    0.0
 2002 267    35  22.20  21.10   5.40  4.793  1.056  0.050  1.007  0.000   60.7    0.5   60.2    0.0
 2002 268    36  22.90  25.10   9.20  5.386  0.933  0.060  0.872  0.000   61.7    0.6   61.1    0.0
 2002 269    37  22.00  25.00   7.80  5.106  0.845  0.065  0.780  0.000   62.5    0.6   61.9    0.0
 2002 270    38  22.10  26.40  10.00  5.316  0.787  0.074  0.713  0.000   63.3    0.7   62.6    0.0
 2002 271    39  18.10  29.40  14.60  4.677  0.733  0.073  0.660  0.000   64.0    0.8   63.3    0.0
 2002 272    40   6.80  17.40  15.50  1.528  1.528  0.017  1.511  0.000   65.6    0.8   64.8    0.0
 2002 273    41  15.40  20.40  13.20  3.526  3.526  0.042  3.484  0.000   69.1    0.8   68.3    0.0
 2002 274    42  18.00  21.60  10.30  4.081  2.904  0.086  2.818  0.000   72.0    0.9   71.1    0.0
 2002 275    43  15.10  24.60  12.70  3.627  3.627  0.052  3.575  0.000   75.6    1.0   74.7    0.0
 2002 276    44  22.90  23.00  15.10  5.499  4.358  0.141  4.216  0.000   80.0    1.1   78.9    0.0
 2002 277    45  14.70  25.90  12.50  3.579  2.242  0.102  2.140  0.000   82.2    1.2   81.0    0.0
 2002 278    46  14.90  23.70  18.50  3.705  1.447  0.115  1.332  0.000   83.7    1.3   82.3    0.0
 2002 279    47  14.10  28.70  17.60  3.687  3.687  0.080  3.607  0.000   87.4    1.4   86.0    0.0
 2002 280    48   7.90  21.20  12.30  1.808  1.808  0.046  1.762  0.000   89.2    1.4   87.7    0.0
 2002 281    49   7.20  21.00  15.20  1.683  1.683  0.046  1.637  0.000   90.8    1.5   89.4    0.0
 2002 282    50   7.30  19.10  18.00  1.705  1.705  0.051  1.654  0.000   92.5    1.5   91.0    0.0
 2002 283    51   7.30  19.50  17.60  1.707  1.707  0.056  1.651  0.000   94.3    1.6   92.7    0.0
 2002 284    52   9.20  23.50  17.60  2.258  2.258  0.080  2.178  0.000   96.5    1.7   94.8    0.0
 2002 285    53  20.90  29.00  17.90  5.474  4.363  0.339  4.024  0.000  100.9    2.0   98.9    0.0
 2002 286    54  25.10  30.10  19.80  6.741  2.577  0.470  2.107  0.000  103.5    2.5  101.0    0.0
 2002 287    55  24.30  31.10  20.10  6.604  1.839  0.514  1.325  0.000  105.3    3.0  102.3    0.0
 2002 288    56   8.50  30.20  21.70  2.311  2.311  0.128  2.183  0.000  107.6    3.1  104.5    0.0
 2002 289    57  10.20  20.80  12.80  2.312  2.312  0.149  2.163  0.000  109.9    3.3  106.6    0.0
 2002 290    58  25.70  21.70   9.90  5.740  4.482  0.617  3.865  0.000  114.4    3.9  110.5    0.0
 2002 291    59  24.20  25.70  12.40  5.798  2.601  0.672  1.929  0.000  117.0    4.6  112.4    0.0
 2002 292    60   8.20  24.30  18.90  2.030  2.030  0.174  1.856  0.000  119.0    4.7  114.3    0.0
 2002 293    61   8.30  25.60  13.80  1.999  1.999  0.196  1.803  0.000  121.0    4.9  116.1    0.0
 2002 294    62  20.50  13.00   7.00  3.911  3.665  0.640  3.025  0.000  124.7    5.6  119.1    0.0
 2002 295    63  25.00  18.90   5.00  5.097  3.732  0.850  2.882  0.000  128.4    6.4  122.0    0.0
 2002 296    64  23.30  23.00   7.00  5.111  2.319  0.888  1.431  0.000  130.7    7.3  123.4    0.0
 2002 297    65  24.20  26.20  16.70  5.972  2.217  1.113  1.104  0.000  133.0    8.4  124.5    0.0
 2002 298    66  11.90  22.60  15.80  2.782  1.523  0.591  0.933  0.000  134.5    9.0  125.5    0.0
 2002 299    67  24.00  27.70  16.80  5.988  5.988  0.984  5.004  0.000  140.5   10.0  130.5    0.0
 2002 300    68   8.30  24.70  18.90  2.025  1.916  0.527  1.389  0.000  142.4   10.5  131.9    0.0
 2002 301    69  18.00  26.90  17.80  4.454  4.454  0.898  3.556  0.000  146.8   11.4  135.4    0.0
 2002 302    70  12.70  18.20  11.60  2.668  2.668  0.604  2.065  0.000  149.5   12.0  137.5    0.0
 2002 303    71   8.90  19.90   9.90  1.881  1.614  0.601  1.014  0.000  151.1   12.6  138.5    0.0
 2002 304    72  26.60  23.10  12.10  5.966  4.874  1.951  2.923  0.000  156.0   14.6  141.4    0.0
 2002 305    73  25.60  23.20  12.40  5.747  3.417  1.984  1.433  0.000  159.4   16.6  142.8    0.0
 2002 306    74  22.10  25.30  15.10  5.189  2.997  1.892  1.105  0.000  162.4   18.5  144.0    0.0
 2002 307    75   8.20  17.40  13.70  1.715  1.715  0.522  1.194  0.000  164.1   19.0  145.1    0.0
 2002 308    76  15.80  16.00  10.50  3.145  3.145  0.984  2.161  0.000  167.3   20.0  147.3    0.0
 2002 309    77  28.00  19.20   7.40  5.656  5.656  2.293  3.364  0.000  172.9   22.3  150.7    0.0
 2002 310    78  28.10  21.60   8.90  5.934  5.328  2.474  2.854  0.000  178.3   24.7  153.5    0.0
 2002 311    79  25.70  26.00  12.20  5.887  3.961  2.533  1.429  0.000  182.2   27.3  155.0    0.0
 2002 312    80  26.10  28.20  14.70  6.240  3.918  2.815  1.103  0.000  186.1   30.1  156.1    0.0
 2002 313    81  10.40  20.60  16.30  2.290  2.290  0.906  1.384  0.000  188.4   31.0  157.4    0.0
 2002 314    82  19.20  17.70  10.80  3.870  3.870  1.606  2.265  0.000  192.3   32.6  159.7    0.0
 2002 315    83   8.50  22.80  12.30  1.854  1.854  0.785  1.069  0.000  194.1   33.4  160.8    0.0
 2002 316    84  28.80  27.40   9.90  6.508  6.194  3.320  2.874  0.000  200.3   36.7  163.6    0.0
 2002 317    85  28.90  30.40  12.80  6.907  5.875  3.622  2.253  0.000  206.2   40.3  165.9    0.0
 2002 318    86  22.00  30.00  17.30  5.401  5.401  2.681  2.720  0.000  211.6   43.0  168.6    0.0
 2002 319    87  15.70  24.90  19.50  3.689  3.616  2.062  1.554  0.000  215.2   45.1  170.2    0.0
 2002 320    88  29.00  30.40  18.00  7.152  5.269  4.113  1.156  0.000  220.5   49.2  171.3    0.0
 2002 321    89  10.30  27.60  20.30  2.501  2.428  1.464  0.964  0.000  222.9   50.6  172.3    0.0
 2002 322    90  28.70  28.60  19.20  6.978  5.001  4.158  0.844  0.000  227.9   54.8  173.1    0.0
 2002 323    91  18.70  27.70  15.30  4.366  4.366  2.017  2.349  0.000  232.3   56.8  175.5    0.0
 2002 324    92   9.40  24.40  18.80  2.168  2.168  1.014  1.154  0.000  234.5   57.8  176.6    0.0
 2002 325    93  22.30  24.00  15.20  4.970  4.970  2.344  2.626  0.000  239.4   60.2  179.3    0.0
 2002 326    94  29.70  24.60  11.50  6.465  6.465  3.543  2.922  0.000  245.9   63.7  182.2    0.0
 2002 327    95  28.80  31.00  15.10  6.951  6.951  4.083  2.867  0.000  252.9   67.8  185.1    0.0
 2002 328    96  18.70  29.00  22.10  4.645  4.645  2.232  2.413  0.000  257.5   70.0  187.5    0.0
 2002 329    97   9.70  24.60  19.00  2.239  2.239  1.083  1.156  0.000  259.7   71.1  188.6    0.0
 2002 330    98  24.00  28.30  18.50  5.757  5.757  2.787  2.970  0.000  265.5   73.9  191.6    0.0
 2002 331    99  13.80  29.30  18.60  3.349  3.349  1.628  1.720  0.000  268.8   75.5  193.3    0.0
 2002 332   100  10.40  19.00  14.80  2.164  2.096  1.368  0.728  0.000  270.9   76.9  194.0    0.0
 2002 333   101   8.90  23.60  16.90  1.996  1.996  0.969  1.028  0.000  272.9   77.9  195.1    0.0
 2002 334   102  22.90  28.70  19.40  5.556  5.556  2.686  2.869  0.000  278.5   80.6  197.9    0.0
 2002 335   103   9.00  20.00  16.80  1.930  1.930  0.933  0.997  0.000  280.4   81.5  198.9    0.0
 2002 336   104  29.00  24.10  14.40  6.417  6.417  3.090  3.327  0.000  286.8   84.6  202.3    0.0
 2002 337   105  21.40  26.60  14.90  4.900  4.900  2.356  2.544  0.000  291.7   86.9  204.8    0.0
 2002 338   106  10.30  21.00  17.80  2.257  2.257  1.083  1.174  0.000  294.0   88.0  206.0    0.0
 2002 339   107  17.30  27.80  19.90  4.175  4.175  1.996  2.179  0.000  298.2   90.0  208.2    0.0
 2002 340   108  10.20  25.80  19.80  2.405  2.405  1.145  1.260  0.000  300.6   91.2  209.4    0.0
 2002 341   109  15.10  24.60  15.10  3.386  3.386  1.605  1.781  0.000  304.0   92.8  211.2    0.0
 2002 342   110  27.20  22.60  11.50  5.777  5.688  3.546  2.142  0.000  309.6   96.3  213.3    0.0
 2002 343   111  28.00  25.00  15.70  6.342  6.277  3.883  2.394  0.000  315.9  100.2  215.7    0.0
 2002 344   112  13.50  22.90  16.10  2.992  2.876  1.826  1.050  0.000  318.8  102.0  216.8    0.0
 2002 345   113  30.40  27.60  18.60  7.263  7.200  4.414  2.786  0.000  326.0  106.4  219.6    0.0
 2002 346   114  24.20  25.80  16.90  5.592  4.809  3.386  1.423  0.000  330.8  109.8  221.0    0.0
 2002 347   115  17.90  25.00  17.00  4.102  3.573  2.473  1.101  0.000  334.4  112.3  222.1    0.0
 2002 348   116  21.70  29.10  18.80  5.287  4.103  3.172  0.931  0.000  338.5  115.5  223.0    0.0
 2002 349   117  20.90  29.60  19.80  5.160  3.902  3.081  0.821  0.000  342.4  118.5  223.9    0.0
 2002 350   118  29.60  27.90  19.30  7.148  4.990  4.246  0.743  0.000  347.4  122.8  224.6    0.0
 2002 351   119  26.00  26.40  17.00  6.068  4.270  3.586  0.684  0.000  351.6  126.4  225.3    0.0
 2002 352   120  31.90  27.90  13.60  7.382  7.382  3.339  4.043  0.000  359.0  129.7  229.3    0.0
 2002 353   121   9.10  21.20  15.70  1.976  1.976  0.889  1.086  0.000  361.0  130.6  230.4    0.0
 2002 354   122  22.80  25.00  16.20  5.208  5.208  2.334  2.874  0.000  366.2  132.9  233.3    0.0
 2002 355   123  30.80  27.10  14.00  7.092  7.092  3.918  3.174  0.000  373.3  136.9  236.5    0.0
 2002 356   124   9.50  28.90  18.60  2.314  2.314  1.026  1.288  0.000  375.6  137.9  237.7    0.0
 2002 357   125  12.60  18.30  11.60  2.548  2.548  1.123  1.425  0.000  378.2  139.0  239.2    0.0
 2002 358   126  26.70  23.20  11.60  5.757  5.757  2.526  3.231  0.000  383.9  141.5  242.4    0.0
 2002 359   127  31.60  27.20  12.20  7.195  6.534  4.078  2.456  0.000  390.5  145.6  244.9    0.0
 2002 360   128  31.80  30.10  15.60  7.691  6.181  4.337  1.844  0.000  396.6  149.9  246.7    0.0
 2002 361   129  31.40  34.00  17.60  8.046  5.766  4.509  1.257  0.000  402.4  154.5  248.0    0.0
 2002 362   130   9.10  27.20  21.40  2.227  2.227  1.208  1.019  0.000  404.6  155.7  249.0    0.0
 2002 363   131   9.10  28.60  20.90  2.255  2.128  1.247  0.880  0.000  406.8  156.9  249.9    0.0
 2002 364   132  15.10  28.20  18.70  3.667  3.667  1.553  2.114  0.000  410.4  158.5  252.0    0.0
 2002 365   133  10.80  24.70  18.20  2.511  2.251  1.370  0.881  0.000  412.7  159.8  252.9    0.0
 2003 001   134  18.80  26.10  18.40  4.453  3.199  2.412  0.786  0.000  415.9  162.2  253.6    0.0
 2003 002   135  22.70  26.10  17.50  5.342  3.591  2.874  0.717  0.000  419.5  165.1  254.4    0.0
 2003 003   136   9.90  25.10  17.50  2.304  1.894  1.231  0.664  0.000  421.4  166.3  255.0    0.0
 2003 004   137  30.40  29.60  18.40  7.503  4.600  3.980  0.620  0.000  426.0  170.3  255.6    0.0
 2003 005   138  28.70  31.30  16.40  7.117  4.332  3.747  0.585  0.000  430.3  174.1  256.2    0.0
 2003 006   139  30.90  27.20  16.50  7.325  4.384  3.830  0.555  0.000  434.7  177.9  256.8    0.0
 2003 007   140  31.30  29.70  14.70  7.535  4.442  3.913  0.529  0.000  439.1  181.8  257.3    0.0
 2003 008   141  29.90  30.60  14.80  7.281  7.281  2.908  4.374  0.000  446.4  184.7  261.7    0.0
 2003 009   142  25.30  30.00  19.80  6.354  6.354  3.154  3.200  0.000  452.8  187.9  264.9    0.0
 2003 010   143  11.60  27.80  20.80  2.866  2.459  1.458  1.000  0.000  455.2  189.3  265.9    0.0
 2003 011   144  23.60  30.00  17.60  5.838  4.819  2.951  1.868  0.000  460.0  192.3  267.7    0.0
 2003 012   145  31.30  29.90  16.10  7.652  4.620  3.843  0.777  0.000  464.7  196.1  268.5    0.0
 2003 013   146  30.70  29.50  13.30  7.318  4.363  3.652  0.710  0.000  469.0  199.8  269.2    0.0
 2003 014   147  30.50  31.20  16.20  7.578  4.419  3.761  0.658  0.000  473.4  203.5  269.9    0.0
 2003 015   148  27.20  31.70  18.70  6.923  4.032  3.416  0.616  0.000  477.5  207.0  270.5    0.0
 2003 016   149  27.70  31.80  20.20  7.137  4.082  3.501  0.581  0.000  481.5  210.5  271.1    0.0
 2003 017   150  27.30  33.70  19.90  7.165  4.045  3.494  0.551  0.000  485.6  214.0  271.6    0.0
 2003 018   151  28.50  27.70  17.10  6.865  3.855  3.329  0.526  0.000  489.4  217.3  272.2    0.0
 2003 019   152  25.60  31.90  14.90  6.431  6.431  2.085  4.346  0.000  495.9  219.4  276.5    0.0
 2003 020   153  20.40  27.80  19.70  5.125  4.701  1.758  2.943  0.000  500.6  221.1  279.5    0.0
 2003 021   154  28.40  30.00  17.50  7.257  4.504  2.063  2.441  0.000  505.1  223.2  281.9    0.0
 2003 022   155  15.60  30.50  20.00  4.113  3.842  0.962  2.880  0.000  508.9  224.2  284.8    0.0
 2003 023   156  27.70  26.60  17.60  6.911  2.928  1.322  1.606  0.000  511.9  225.5  286.4    0.0
 2003 024   157  29.20  27.90  11.50  7.090  2.281  1.104  1.177  0.000  514.1  226.6  287.6    0.0
 2003 025   158  26.50  29.70  16.40  6.852  1.841  0.865  0.975  0.000  516.0  227.4  288.5    0.0
 2003 026   159  29.30  30.10  14.90  7.552  1.623  0.771  0.851  0.000  517.6  228.2  289.4    0.0
 2003 027   160  26.80  30.20  14.00  6.889  1.334  0.568  0.765  0.000  518.9  228.8  290.2    0.0
 2003 028   161  29.30  31.80  15.80  7.789  1.220  0.518  0.701  0.000  520.2  229.3  290.9    0.0
 2003 029   162  28.40  32.00  18.30  7.720  1.065  0.414  0.651  0.000  521.2  229.7  291.5    0.0

*DSSAT Cropping System Model Ver. 4.0.2.000               Aug 23, 2016; 18:31:31

*RUN   5        : UYSB                    
 MODEL          : CRGRO040 - Soybean         
 EXPERIMENT     : UYSB0335 SB    late to create DSS                             
 TREATMENT  1   : UYSB                    

@YEAR DOY   DAS   SRAA   TMXA   TMNA   EOAA   ETAA   EPAA   ESAA   EFAD   ETAC   EPAC   ESAC   EFAC
 2003 232     0  16.40  27.00   6.90  3.882  1.921  0.000  1.921  0.000    1.9    0.0    1.9    0.0
 2003 233     1  14.70  31.20  14.30  3.877  2.279  0.000  2.279  0.000    4.2    0.0    4.2    0.0
 2003 234     2   5.20  13.70   6.40  1.021  1.021  0.000  1.021  0.000    5.2    0.0    5.2    0.0
 2003 235     3   5.10   8.70   6.70  0.929  0.929  0.000  0.929  0.000    6.2    0.0    6.2    0.0
 2003 236     4  14.10  12.10   3.20  2.612  2.612  0.000  2.612  0.000    8.8    0.0    8.8    0.0
 2003 237     5  10.20  10.90   0.70  1.803  1.803  0.000  1.803  0.000   10.6    0.0   10.6    0.0
 2003 238     6  13.60  12.80  -2.40  2.397  1.701  0.000  1.701  0.000   12.3    0.0   12.3    0.0
 2003 239     7  11.90   9.30   4.10  2.127  2.127  0.000  2.127  0.000   14.4    0.0   14.4    0.0
 2003 240     8  13.40  12.40   4.70  2.534  1.731  0.000  1.731  0.000   16.1    0.0   16.1    0.0
 2003 241     9  14.90  12.60   4.00  2.806  1.222  0.000  1.222  0.000   17.3    0.0   17.3    0.0
 2003 242    10  12.80  14.30   5.30  2.508  1.000  0.000  1.000  0.000   18.3    0.0   18.3    0.0
 2003 243    11  14.60  15.90   4.90  2.918  0.868  0.000  0.868  0.000   19.2    0.0   19.2    0.0
 2003 244    12  19.00  19.40   6.40  4.051  0.777  0.000  0.777  0.000   20.0    0.0   20.0    0.0
 2003 245    13  17.20  21.00   1.80  3.592  0.710  0.000  0.710  0.000   20.7    0.0   20.7    0.0
 2003 246    14  18.60  25.00   6.40  4.274  0.658  0.000  0.658  0.000   21.4    0.0   21.4    0.0
 2003 247    15   8.30  22.50  14.50  1.978  1.978  0.000  1.978  0.000   23.3    0.0   23.3    0.0
 2003 248    16  11.30  26.70  14.70  2.838  1.177  0.000  1.177  0.000   24.5    0.0   24.5    0.0
 2003 249    17  18.60  32.50  18.70  5.138  0.975  0.000  0.975  0.000   25.5    0.0   25.5    0.0
 2003 250    18   5.80  22.50  14.00  1.376  1.376  0.003  1.372  0.000   26.9    0.0   26.9    0.0
 2003 251    19   5.80  15.20   8.90  1.192  1.192  0.003  1.189  0.000   28.1    0.0   28.1    0.0
 2003 252    20  18.20  13.60   4.70  3.504  3.504  0.010  3.494  0.000   31.6    0.0   31.5    0.0
 2003 253    21  20.40  14.40   2.60  3.891  2.873  0.019  2.855  0.000   34.4    0.0   34.4    0.0
 2003 254    22  20.20  18.10   1.40  4.026  2.305  0.020  2.285  0.000   36.7    0.1   36.7    0.0
 2003 255    23  21.00  21.60   3.10  4.474  1.383  0.023  1.360  0.000   38.1    0.1   38.0    0.0
 2003 256    24  21.20  14.10   6.10  4.171  1.093  0.022  1.071  0.000   39.2    0.1   39.1    0.0
 2003 257    25  20.60  13.90   1.20  3.842  0.934  0.021  0.913  0.000   40.2    0.1   40.0    0.0
 2003 258    26  20.70  15.70   3.30  4.056  0.832  0.023  0.809  0.000   41.0    0.1   40.8    0.0
 2003 259    27  18.70  15.40   5.00  3.710  0.755  0.021  0.734  0.000   41.7    0.2   41.6    0.0
 2003 260    28  17.70  16.90   4.20  3.562  0.698  0.021  0.677  0.000   42.4    0.2   42.2    0.0
 2003 261    29  19.80  21.90   5.00  4.309  0.657  0.026  0.631  0.000   43.1    0.2   42.9    0.0
 2003 262    30   7.30  25.70  10.60  1.751  1.751  0.007  1.745  0.000   44.8    0.2   44.6    0.0
 2003 263    31  21.20  19.10   4.80  4.429  0.703  0.030  0.673  0.000   45.5    0.2   45.3    0.0
 2003 264    32  13.90  22.00   8.90  3.136  3.136  0.014  3.122  0.000   48.7    0.3   48.4    0.0
 2003 265    33  11.50  24.10  15.80  2.822  2.822  0.013  2.809  0.000   51.5    0.3   51.2    0.0
 2003 266    34   9.00  20.10  14.20  2.074  2.074  0.010  2.063  0.000   53.6    0.3   53.3    0.0
 2003 267    35  15.50  19.80  11.00  3.459  2.496  0.029  2.467  0.000   56.1    0.3   55.8    0.0
 2003 268    36  16.20  19.20   7.90  3.488  2.362  0.030  2.331  0.000   58.4    0.3   58.1    0.0
 2003 269    37  11.00  19.00   9.80  2.403  1.390  0.022  1.368  0.000   59.8    0.4   59.5    0.0
 2003 270    38  15.30  23.50  12.30  3.621  2.530  0.036  2.495  0.000   62.4    0.4   62.0    0.0
 2003 271    39  15.00  16.30   6.30  3.052  2.251  0.035  2.216  0.000   64.6    0.4   64.2    0.0
 2003 272    40  23.30  18.00   2.10  4.665  1.403  0.056  1.347  0.000   66.0    0.5   65.5    0.0
 2003 273    41  23.90  22.00   8.20  5.354  1.132  0.067  1.065  0.000   67.1    0.6   66.6    0.0
 2003 274    42  17.70  27.00  10.30  4.299  0.967  0.059  0.909  0.000   68.1    0.6   67.5    0.0
 2003 275    43  12.90  23.00  12.60  3.039  0.853  0.046  0.806  0.000   69.0    0.7   68.3    0.0
 2003 276    44   7.00  21.20  11.90  1.602  1.602  0.017  1.585  0.000   70.6    0.7   69.9    0.0
 2003 277    45   7.00  19.40  16.20  1.623  1.623  0.018  1.605  0.000   72.2    0.7   71.5    0.0
 2003 278    46  11.00  23.80  15.50  2.678  2.678  0.034  2.644  0.000   74.9    0.7   74.1    0.0
 2003 279    47  20.30  20.60  12.20  4.617  3.537  0.106  3.431  0.000   78.4    0.8   77.6    0.0
 2003 280    48  21.60  24.20  11.20  5.098  2.330  0.128  2.202  0.000   80.7    1.0   79.8    0.0
 2003 281    49   9.70  27.00  15.60  2.452  2.452  0.042  2.410  0.000   83.2    1.0   82.2    0.0
 2003 282    50  22.40  23.40  13.20  5.317  4.728  0.163  4.565  0.000   87.9    1.2   86.7    0.0
 2003 283    51  13.80  13.60   7.40  2.719  2.719  0.061  2.658  0.000   90.6    1.2   89.4    0.0
 2003 284    52  25.30  15.20   3.90  4.929  1.580  0.169  1.412  0.000   92.2    1.4   90.8    0.0
 2003 285    53  25.50  16.30   3.20  5.015  1.272  0.177  1.095  0.000   93.5    1.6   91.9    0.0
 2003 286    54  25.40  20.10   4.30  5.334  1.123  0.195  0.927  0.000   94.6    1.8   92.8    0.0
 2003 287    55  25.40  24.80   8.00  5.868  1.045  0.226  0.819  0.000   95.7    2.0   93.7    0.0
 2003 288    56  25.80  26.40  11.80  6.271  1.005  0.263  0.742  0.000   96.7    2.3   94.4    0.0
 2003 289    57  26.40  30.80  12.70  6.801  0.998  0.315  0.683  0.000   97.7    2.6   95.1    0.0
 2003 290    58  21.90  30.30  16.30  5.760  0.932  0.296  0.636  0.000   98.6    2.9   95.7    0.0
 2003 291    59  17.90  32.90  19.00  4.935  3.242  0.282  2.960  0.000  101.8    3.2   98.7    0.0
 2003 292    60  22.40  23.90  14.40  5.376  0.994  0.351  0.643  0.000  102.8    3.5   99.3    0.0
 2003 293    61  10.90  21.20  11.10  2.457  0.778  0.175  0.603  0.000  103.6    3.7   99.9    0.0
 2003 294    62  25.50  23.50  12.00  5.961  1.019  0.449  0.570  0.000  104.6    4.1  100.5    0.0
 2003 295    63  26.90  24.20   9.10  6.187  1.039  0.497  0.542  0.000  105.7    4.6  101.0    0.0
 2003 296    64  27.30  27.20  11.00  6.616  1.079  0.561  0.518  0.000  106.7    5.2  101.5    0.0
 2003 297    65  22.90  32.00  14.80  6.030  1.078  0.582  0.497  0.000  107.8    5.8  102.0    0.0
 2003 298    66  11.40  24.90  19.20  2.857  2.857  0.209  2.648  0.000  110.7    6.0  104.7    0.0
 2003 299    67  21.10  25.90  14.70  5.150  4.838  0.672  4.166  0.000  115.5    6.7  108.9    0.0
 2003 300    68  27.30  20.80   8.40  5.910  3.662  0.882  2.780  0.000  119.2    7.5  111.6    0.0
 2003 301    69  27.40  23.80   9.00  6.192  2.409  0.986  1.423  0.000  121.6    8.5  113.1    0.0
 2003 302    70  27.50  26.40  10.80  6.503  2.228  1.128  1.100  0.000  123.8    9.6  114.2    0.0
 2003 303    71  27.90  31.30  15.90  7.245  2.329  1.399  0.931  0.000  126.1   11.0  115.1    0.0
 2003 304    72  10.40  19.90  11.50  2.262  2.262  0.347  1.916  0.000  128.4   11.4  117.0    0.0
 2003 305    73  27.90  18.60   8.10  5.773  5.702  1.350  4.352  0.000  134.1   12.7  121.4    0.0
 2003 306    74  27.80  20.00   4.50  5.664  4.241  1.383  2.857  0.000  138.3   14.1  124.2    0.0
 2003 307    75  27.80  21.20   5.00  5.776  2.903  1.474  1.429  0.000  141.2   15.6  125.6    0.0
 2003 308    76  25.00  22.40   9.50  5.483  2.576  1.473  1.103  0.000  143.8   17.1  126.7    0.0
 2003 309    77  28.00  24.60  11.10  6.383  2.769  1.836  0.932  0.000  146.6   18.9  127.7    0.0
 2003 310    78  25.10  26.60  13.50  5.956  2.687  1.864  0.822  0.000  149.3   20.8  128.5    0.0
 2003 311    79  25.30  27.80  14.80  6.120  2.863  2.119  0.744  0.000  152.1   22.9  129.2    0.0
 2003 312    80  21.00  29.70  14.90  5.168  2.663  1.978  0.685  0.000  154.8   24.9  129.9    0.0
 2003 313    81  16.70  29.60  18.00  4.178  2.394  1.756  0.638  0.000  157.2   26.6  130.6    0.0
 2003 314    82  27.50  30.40  14.90  6.745  3.692  3.093  0.599  0.000  160.9   29.7  131.2    0.0
 2003 315    83  24.40  33.80  16.50  6.254  6.254  2.603  3.651  0.000  167.1   32.3  134.8    0.0
 2003 316    84  12.00  20.20  13.90  2.556  2.556  1.039  1.517  0.000  169.7   33.4  136.3    0.0
 2003 317    85  24.50  19.50  11.30  5.042  5.042  2.116  2.927  0.000  174.7   35.5  139.3    0.0
 2003 318    86  28.50  22.70   8.20  5.942  5.942  3.286  2.656  0.000  180.7   38.8  141.9    0.0
 2003 319    87  27.30  29.30  11.70  6.341  6.341  2.800  3.541  0.000  187.0   41.6  145.5    0.0
 2003 320    88   8.60  21.90  17.70  1.911  1.911  0.879  1.032  0.000  188.9   42.4  146.5    0.0
 2003 321    89  15.00  26.60  16.30  3.476  3.476  1.651  1.825  0.000  192.4   44.1  148.3    0.0
 2003 322    90  11.50  18.10  13.20  2.329  2.329  1.148  1.181  0.000  194.7   45.2  149.5    0.0
 2003 323    91  26.20  25.50  13.80  5.847  5.847  2.931  2.916  0.000  200.6   48.2  152.4    0.0
 2003 324    92  29.80  20.20  11.20  6.069  6.069  3.552  2.517  0.000  206.7   51.7  154.9    0.0
 2003 325    93  30.50  25.70   9.80  6.574  6.574  3.636  2.939  0.000  213.2   55.4  157.9    0.0
 2003 326    94  29.70  33.10  15.60  7.281  6.500  5.066  1.434  0.000  219.7   60.4  159.3    0.0
 2003 327    95  27.30  34.10  19.20  6.922  6.922  3.843  3.079  0.000  226.7   64.3  162.4    0.0
 2003 328    96   8.80  19.40  15.40  1.823  1.823  1.039  0.784  0.000  228.5   65.3  163.2    0.0
 2003 329    97  27.90  27.60  13.40  6.281  6.281  3.832  2.449  0.000  234.8   69.1  165.6    0.0
 2003 330    98  17.00  29.50  18.00  4.046  4.046  2.370  1.676  0.000  238.8   71.5  167.3    0.0
 2003 331    99  30.00  29.20  17.40  7.073  7.073  4.210  2.863  0.000  245.9   75.7  170.2    0.0
 2003 332   100  15.70  27.50  14.70  3.555  3.555  2.125  1.430  0.000  249.4   77.8  171.6    0.0
 2003 333   101  31.00  29.10  14.00  7.104  7.104  5.408  1.696  0.000  256.5   83.3  173.3    0.0
 2003 334   102  11.50  22.20  16.50  2.475  2.475  1.504  0.971  0.000  259.0   84.8  174.3    0.0
 2003 335   103  28.70  26.10  16.20  6.454  6.454  3.949  2.505  0.000  265.5   88.7  176.8    0.0
 2003 336   104  22.60  25.70  13.20  4.938  4.938  3.032  1.905  0.000  270.4   91.7  178.7    0.0
 2003 337   105  24.60  29.00  14.50  5.643  5.643  4.204  1.438  0.000  276.0   95.9  180.1    0.0
 2003 338   106  14.90  27.80  16.90  3.432  3.432  2.125  1.307  0.000  279.5   98.1  181.4    0.0
 2003 339   107  31.10  24.80  13.30  6.718  6.718  4.181  2.538  0.000  286.2  102.2  183.9    0.0
 2003 340   108  31.10  25.40   9.20  6.542  6.542  4.202  2.340  0.000  292.7  106.4  186.3    0.0
 2003 341   109  19.60  27.10  13.30  4.351  4.351  2.722  1.629  0.000  297.1  109.2  187.9    0.0
 2003 342   110  13.60  24.00  12.80  2.895  2.895  1.817  1.078  0.000  300.0  111.0  189.0    0.0
 2003 343   111  30.90  22.10  11.20  6.336  6.336  3.979  2.357  0.000  306.3  115.0  191.4    0.0
 2003 344   112  29.80  27.70   9.90  6.481  6.481  4.074  2.407  0.000  312.8  119.0  193.8    0.0
 2003 345   113  19.30  26.80  11.80  4.215  4.215  2.655  1.561  0.000  317.0  121.7  195.3    0.0
 2003 346   114  28.20  23.90   9.70  5.840  5.840  3.731  2.108  0.000  322.9  125.4  197.4    0.0
 2003 347   115  20.80  24.60  13.90  4.499  4.499  2.835  1.664  0.000  327.4  128.3  199.1    0.0
 2003 348   116  26.60  27.50  15.70  6.041  6.041  3.872  2.168  0.000  333.4  132.1  201.3    0.0
 2003 349   117  10.10  24.00  14.80  2.185  2.185  1.376  0.809  0.000  335.6  133.5  202.1    0.0
 2003 350   118  29.90  21.20  10.80  6.039  6.039  3.793  2.246  0.000  341.6  137.3  204.3    0.0
 2003 351   119  31.30  24.10  10.10  6.523  6.523  4.093  2.430  0.000  348.1  141.4  206.7    0.0
 2003 352   120  31.90  26.80  11.10  6.931  6.931  5.172  1.759  0.000  355.1  146.6  208.5    0.0
 2003 353   121  20.60  29.20  16.30  4.795  4.795  3.000  1.795  0.000  359.9  149.6  210.3    0.0
 2003 354   122  11.20  25.20  17.60  2.515  2.515  1.570  0.945  0.000  362.4  151.1  211.2    0.0
 2003 355   123  27.80  29.90  17.90  6.604  6.604  4.108  2.495  0.000  369.0  155.2  213.7    0.0
 2003 356   124  16.00  23.70  12.60  3.391  3.391  2.105  1.286  0.000  372.4  157.4  215.0    0.0
 2003 357   125  30.10  24.00  10.70  6.305  6.305  3.975  2.330  0.000  378.7  161.3  217.4    0.0
 2003 358   126  22.90  25.80  12.90  4.995  4.995  3.080  1.915  0.000  383.7  164.4  219.3    0.0
 2003 359   127  31.40  29.50  17.10  7.390  7.390  5.371  2.018  0.000  391.1  169.8  221.3    0.0
 2003 360   128  26.80  29.60  16.00  6.264  6.162  4.857  1.304  0.000  397.2  174.6  222.6    0.0
 2003 361   129   9.10  26.70  18.10  2.092  2.092  1.277  0.814  0.000  399.3  175.9  223.4    0.0
 2003 362   130  18.20  22.70  15.50  3.909  3.909  2.378  1.532  0.000  403.2  178.3  224.9    0.0
 2003 363   131  29.60  24.00   9.80  6.165  6.165  3.735  2.430  0.000  409.4  182.0  227.4    0.0
 2003 364   132  27.90  28.40  11.30  6.211  6.211  4.244  1.967  0.000  415.6  186.3  229.3    0.0
 2003 365   133  28.90  22.90  13.80  6.143  6.143  3.696  2.447  0.000  421.7  190.0  231.8    0.0
 2004 001   134  30.10  27.40   8.70  6.488  6.487  4.941  1.546  0.000  428.2  194.9  233.3    0.0
 2004 002   135  31.60  27.40  10.40  6.908  6.397  5.244  1.153  0.000  434.6  200.2  234.5    0.0
 2004 003   136  31.60  29.80  13.70  7.295  6.482  5.520  0.962  0.000  441.1  205.7  235.4    0.0
 2004 004   137  23.10  30.90  16.90  5.533  5.014  4.171  0.842  0.000  446.1  209.8  236.3    0.0
 2004 005   138  25.00  32.50  20.20  6.242  5.446  4.688  0.759  0.000  451.6  214.5  237.0    0.0
 2004 006   139  27.90  33.70  18.40  6.969  5.908  5.212  0.696  0.000  457.5  219.7  237.7    0.0
 2004 007   140  19.80  32.80  18.80  4.915  4.915  2.867  2.048  0.000  462.4  222.6  239.8    0.0
 2004 008   141  29.20  30.90  19.90  7.161  6.534  5.310  1.223  0.000  468.9  227.9  241.0    0.0
 2004 009   142  26.60  31.10  20.40  6.564  5.847  4.846  1.001  0.000  474.8  232.8  242.0    0.0
 2004 010   143  23.40  30.90  20.30  5.761  5.102  4.233  0.868  0.000  479.9  237.0  242.9    0.0
 2004 011   144  28.50  26.90  20.10  6.708  5.683  4.906  0.778  0.000  485.6  241.9  243.7    0.0
 2004 012   145  19.50  27.30  18.20  4.547  4.020  3.310  0.711  0.000  489.6  245.2  244.4    0.0
 2004 013   146  23.90  27.70  17.00  5.550  4.679  4.021  0.658  0.000  494.3  249.2  245.0    0.0
 2004 014   147  29.50  29.20  17.30  6.988  5.633  5.017  0.616  0.000  499.9  254.3  245.6    0.0
 2004 015   148  22.60  26.70  15.90  5.150  4.276  3.695  0.581  0.000  504.2  257.9  246.2    0.0
 2004 016   149  28.70  27.00  13.40  6.438  5.148  4.597  0.551  0.000  509.3  262.5  246.8    0.0
 2004 017   150  13.50  28.50  15.90  3.144  2.760  2.234  0.526  0.000  512.1  264.8  247.3    0.0
 2004 018   151  12.80  27.30  18.60  3.003  2.627  2.123  0.504  0.000  514.7  266.9  247.8    0.0
 2004 019   152  14.30  23.60  18.40  3.211  3.211  1.752  1.459  0.000  517.9  268.7  249.3    0.0
 2004 020   153  17.30  28.50  17.90  4.097  3.414  2.864  0.550  0.000  521.3  271.5  249.8    0.0
 2004 021   154  26.70  29.10  18.70  6.408  4.977  4.453  0.524  0.000  526.3  276.0  250.3    0.0
 2004 022   155  26.10  30.00  19.30  6.359  4.894  4.392  0.502  0.000  531.2  280.4  250.8    0.0
 2004 023   156  24.20  29.10  19.10  5.833  4.168  3.685  0.483  0.000  535.4  284.0  251.3    0.0
 2004 024   157  26.70  30.50  18.40  6.507  3.609  3.144  0.465  0.000  539.0  287.2  251.8    0.0
 2004 025   158  28.30  29.80  15.70  6.712  3.190  2.740  0.450  0.000  542.2  289.9  252.2    0.0
 2004 026   159  29.30  32.00  13.90  7.033  2.864  2.429  0.436  0.000  545.0  292.4  252.7    0.0
 2004 027   160  29.80  30.60  14.60  7.083  3.102  2.180  0.923  0.000  548.1  294.5  253.6    0.0
 2004 028   161  16.10  29.70  17.60  3.878  2.386  1.975  0.411  0.000  550.5  296.5  254.0    0.0
 2004 029   162  29.70  33.20  19.20  7.530  2.203  1.803  0.400  0.000  552.7  298.3  254.4    0.0
 2004 030   163  29.20  36.00  18.60  8.037  2.045  1.655  0.390  0.000  554.8  300.0  254.8    0.0
 2004 031   164  17.00  34.60  20.70  4.530  1.747  1.528  0.218  0.000  556.5  301.5  255.0    0.0
 2004 032   165  25.40  30.20  20.90  6.542  6.542  2.132  4.411  0.000  563.1  303.6  259.4    0.0
 2004 033   166  23.70  29.00  18.20  5.966  5.966  1.545  4.421  0.000  569.0  305.2  263.8    0.0
 2004 034   167   8.50  22.90  19.90  2.039  2.039  0.420  1.619  0.000  571.1  305.6  265.5    0.0
 2004 035   168  22.10  30.30  19.40  5.788  5.788  1.134  4.654  0.000  576.8  306.7  270.1    0.0
 2004 036   169  28.70  27.20  19.20  7.297  4.640  1.402  3.238  0.000  581.5  308.1  273.4    0.0
 2004 037   170  29.30  27.10  15.50  7.271  2.584  1.137  1.447  0.000  584.1  309.3  274.8    0.0
 2004 038   171  25.90  27.70  14.90  6.471  1.932  0.821  1.111  0.000  586.0  310.1  275.9    0.0
 2004 039   172  29.30  28.30  16.10  7.466  1.705  0.768  0.937  0.000  587.7  310.9  276.9    0.0
 2004 040   173  26.30  29.30  15.70  6.777  1.389  0.563  0.826  0.000  589.1  311.4  277.7    0.0
