*GROWTH ASPECTS OUTPUT FILE

*DSSAT Cropping System Model Ver. 4.0.2.000               Aug 11, 2016; 20:58:25

*RUN   1        : UYMZ                    
 MODEL          : MZCER040 - Maize           
 EXPERIMENT     : UYMZ0185 MZ    late to create DSS                             
 TREATMENT  1   : UYMZ                    

@YEAR DOY   DAS   DAP   L#SD   GSTD   LAID   LWAD   SWAD   GWAD   RWAD   CWAD   G#AD   GWGD   HIAD   PWAD   P#AD   WSPD   WSGD   NSTD   EWSD   LN%D   SH%D   HIPD   PWDD   PWTD     SLAD   CHTD   CWID   RDPD   RL1D   RL2D   RL3D   RL4D   RL5D   RL6D   RL7D   RL8D   RL9D   RL10   CDAD   LDAD   SDAD   SNW0C   SNW1C
 1992 223     3     0    0.0      0   0.00      0      0      0      0      0      0    0.0  0.000      0      0  0.000  0.000  0.000  0.000   0.00   0.00   0.00      0      0      0.0   0.00   0.00   0.03   0.00   0.00   0.00   0.00   0.00   0.00   0.00   0.00   0.00   0.00      0      0      0       0       0
 1992 224     4     1    0.0      0   0.00      0      0      0      0      0      0    0.0  0.000      0      0  0.000  0.000  0.000  0.000   0.00   0.00   0.00      0      0      0.0   0.00   0.00   0.03   0.00   0.00   0.00   0.00   0.00   0.00   0.00   0.00   0.00   0.00      0      0      0       0       0
 1992 225     5     2    0.0      0   0.00      0      0      0      0      0      0    0.0  0.000      0      0  0.000  0.000  0.000  0.000   0.00   0.00   0.00      0      0      0.0   0.00   0.00   0.03   0.00   0.00   0.00   0.00   0.00   0.00   0.00   0.00   0.00   0.00      0      0      0       0       0
 1992 226     6     3    0.0      0   0.00      0      0      0      0      0      0    0.0  0.000      0      0  0.000  0.000  0.000  0.000   0.00   0.00   0.00      0      0      0.0   0.00   0.00   0.04   0.00   0.00   0.00   0.00   0.00   0.00   0.00   0.00   0.00   0.00      0      0      0       0       0
 1992 227     7     4    0.0      0   0.00      0      0      0      0      0      0    0.0  0.000      0      0  0.000  0.000  0.000  0.000   0.00   0.00   0.00      0      0      0.0   0.00   0.00   0.04   0.00   0.00   0.00   0.00   0.00   0.00   0.00   0.00   0.00   0.00      0      0      0       0       0
 1992 228     8     5    0.0      0   0.00      0      0      0      0      0      0    0.0  0.000      0      0  0.000  0.000  0.000  0.000   0.00   0.00   0.00      0      0      0.0   0.00   0.00   0.05   0.00   0.00   0.00   0.00   0.00   0.00   0.00   0.00   0.00   0.00      0      0      0       0       0
 1992 229     9     6    0.0      0   0.00      0      0      0      0      0      0    0.0  0.000      0      0  0.000  0.000  0.000  0.000   0.00   0.00   0.00      0      0      0.0   0.00   0.00   0.06   0.00   0.00   0.00   0.00   0.00   0.00   0.00   0.00   0.00   0.00      0      0      0       0       0
 1992 230    10     7    0.0      0   0.00      0      0      0      0      0      0    0.0  0.000      0      0  0.000  0.000  0.000  0.000   0.00   0.00   0.00      0      0      0.0   0.00   0.00   0.08   0.00   0.00   0.00   0.00   0.00   0.00   0.00   0.00   0.00   0.00      0      0      0       0       0
 1992 231    11     8    0.0      0   0.00      0      0      0      0      0      0    0.0  0.000      0      0  0.000  0.000  0.000  0.000   0.00   0.00   0.00      0      0      0.0   0.00   0.00   0.09   0.00   0.00   0.00   0.00   0.00   0.00   0.00   0.00   0.00   0.00      0      0      0       0       0
 1992 232    12     9    0.0      0   0.00      0      0      0      0      0      0    0.0  0.000      0      0  0.000  0.000  0.000  0.000   0.00   0.00   0.00      0      0      0.0   0.00   0.00   0.10   0.00   0.00   0.00   0.00   0.00   0.00   0.00   0.00   0.00   0.00      0      0      0       0       0
 1992 233    13    10    0.0      0   0.00      0      0      0      0      0      0    0.0  0.000      0      0  0.000  0.000  0.000  0.000   0.00   0.00   0.00      0      0      0.0   0.00   0.00   0.11   0.00   0.00   0.00   0.00   0.00   0.00   0.00   0.00   0.00   0.00      0      0      0       0       0
 1992 234    14    11    1.0      1   0.00     14     14      0     14     28      0    0.0  0.000      0      0  0.000  0.000  0.012  0.000   4.40   0.00   0.00      0      0     17.6   0.00   0.00   0.11   0.28   0.08   0.00   0.00   0.00   0.00   0.00   0.00   0.00   0.00      0      0      0       0       0
 1992 235    15    12    2.0      1   0.00     14     14      0     14     28      0    0.0  0.000      0      0  0.000  0.000  0.018  0.000   4.55   0.00   0.00      0      0     31.8   0.00   0.00   0.12   0.28   0.08   0.00   0.00   0.00   0.00   0.00   0.00   0.00   0.00      0      0      0       0       0
 1992 236    16    13    2.0      1   0.01     14     14      0     15     28      0    0.0  0.000      0      0  0.000  0.000  0.000  0.000   4.53   0.00   0.00      0      0     43.7   0.00   0.00   0.13   0.29   0.09   0.00   0.00   0.00   0.00   0.00   0.00   0.00   0.00      0      0      0       0       0
 1992 237    17    14    2.0      1   0.01     14     14      0     16     28      0    0.0  0.000      0      0  0.000  0.000  0.000  0.000   4.51   0.00   0.00      0      0     56.5   0.00   0.00   0.14   0.30   0.10   0.00   0.00   0.00   0.00   0.00   0.00   0.00   0.00      0      0      0       0       0
 1992 238    18    15    2.0      1   0.01     14     14      0     17     28      0    0.0  0.000      0      0  0.000  0.000  0.000  0.000   4.49   0.00   0.00      0      0     69.1   0.00   0.00   0.14   0.31   0.12   0.00   0.00   0.00   0.00   0.00   0.00   0.00   0.00      0      0      0       0       0
 1992 239    19    16    3.0      1   0.01     14     14      0     18     28      0    0.0  0.000      0      0  0.000  0.000  0.000  0.000   4.48   0.00   0.00      0      0     81.8   0.00   0.00   0.15   0.33   0.14   0.00   0.00   0.00   0.00   0.00   0.00   0.00   0.00      0      0      0       0       0
 1992 240    20    17    3.0      1   0.01     14     14      0     20     28      0    0.0  0.000      0      0  0.000  0.000  0.000  0.000   4.45   0.00   0.00      0      0    101.7   0.00   0.00   0.16   0.35   0.16   0.00   0.00   0.00   0.00   0.00   0.00   0.00   0.00      0      0      0       0       0
 1992 241    21    18    3.0      1   0.02     14     14      0     21     28      0    0.0  0.000      0      0  0.000  0.000  0.000  0.000   4.43   0.00   0.00      0      0    118.4   0.00   0.00   0.17   0.36   0.17   0.00   0.00   0.00   0.00   0.00   0.00   0.00   0.00      0      0      0       0       0
 1992 242    22    19    3.0      1   0.02     14     14      0     23     28      0    0.0  0.000      0      0  0.000  0.000  0.000  0.000   4.41   0.00   0.00      0      0    143.5   0.00   0.00   0.18   0.38   0.20   0.01   0.00   0.00   0.00   0.00   0.00   0.00   0.00      0      0      0       0       1
 1992 243    23    20    4.0      1   0.03     14     14      0     24     28      0    0.0  0.000      0      0  0.000  0.000  0.000  0.000   4.41   0.00   0.00      0      0    224.7   0.00   0.00   0.19   0.39   0.21   0.01   0.00   0.00   0.00   0.00   0.00   0.00   0.00      0      0      0       0       1
 1992 244    24    21    4.0      1   0.04     14     14      0     25     28      0    0.0  0.000      0      0  0.000  0.000  0.000  0.000   4.37   0.00   0.00      0      0    255.9   0.00   0.00   0.19   0.40   0.22   0.01   0.00   0.00   0.00   0.00   0.00   0.00   0.00      0      0      0       0       1
 1992 245    25    22    4.0      1   0.04     14     14      0     27     28      0    0.0  0.000      0      0  0.000  0.000  0.000  0.000   4.37   0.00   0.00      0      0    278.9   0.00   0.00   0.19   0.41   0.23   0.02   0.00   0.00   0.00   0.00   0.00   0.00   0.00      0      0      0       0       1
 1992 246    26    23    4.0      1   0.04     14     14      0     28     28      0    0.0  0.000      0      0  0.000  0.000  0.000  0.000   4.36   0.00   0.00      0      0    312.2   0.00   0.00   0.20   0.41   0.24   0.02   0.00   0.00   0.00   0.00   0.00   0.00   0.00      0      0      0       0       1
 1992 247    27    24    4.0      1   0.05     15     14      0     32     29      0    0.0  0.000      0      0  0.000  0.000  0.000  0.000   4.25   0.00   0.00      0      0    340.4   0.00   0.00   0.20   0.45   0.29   0.04   0.00   0.00   0.00   0.00   0.00   0.00   0.00      0      0      0       0       1
 1992 248    28    25    4.0      1   0.06     18     14      0     38     32      0    0.0  0.000      0      0  0.000  0.000  0.000  0.000   3.93   0.00   0.00      0      0    327.9   0.00   0.00   0.21   0.50   0.34   0.06   0.00   0.00   0.00   0.00   0.00   0.00   0.00      0      0      0       0       1
 1992 249    29    26    5.0      1   0.07     21     14      0     46     35      0    0.0  0.000      0      0  0.000  0.000  0.000  0.000   3.84   0.00   0.00      0      0    315.0   0.00   0.00   0.22   0.56   0.41   0.09   0.00   0.00   0.00   0.00   0.00   0.00   0.00      0      0      0       0       1
 1992 250    30    27    5.0      1   0.08     25     14      0     54     39      0    0.0  0.000      0      0  0.000  0.000  0.000  0.000   3.86   0.00   0.00      0      0    304.1   0.00   0.00   0.22   0.62   0.48   0.13   0.00   0.00   0.00   0.00   0.00   0.00   0.00      0      0      0       0       2
 1992 251    31    28    5.0      1   0.09     31     14      0     63     45      0    0.0  0.000      0      0  0.000  0.000  0.000  0.000   3.75   0.00   0.00      0      0    292.2   0.00   0.00   0.23   0.68   0.56   0.17   0.00   0.00   0.00   0.00   0.00   0.00   0.00      0      0      0       0       2
 1992 252    32    29    5.0      1   0.11     38     14      0     64     52      0    0.0  0.000      0      0  0.000  0.000  0.000  0.000   3.69   0.00   0.00      0      0    280.5   0.00   0.00   0.24   0.69   0.56   0.17   0.00   0.00   0.00   0.00   0.00   0.00   0.00      0      0      0       0       2
 1992 253    33    30    5.0      1   0.12     46     14      0     70     60      0    0.0  0.000      0      0  0.000  0.000  0.000  0.000   3.69   0.00   0.00      0      0    270.1   0.00   0.00   0.25   0.73   0.61   0.21   0.00   0.00   0.00   0.00   0.00   0.00   0.00      0      0      0       0       3
 1992 254    34    31    6.0      1   0.14     55     14      0     78     69      0    0.0  0.000      0      0  0.000  0.000  0.000  0.000   3.64   0.00   0.00      0      0    260.0   0.00   0.00   0.26   0.78   0.67   0.25   0.00   0.00   0.00   0.00   0.00   0.00   0.00      0      0      0       0       3
 1992 255    35    32    6.0      1   0.16     66     14      0     82     80      0    0.0  0.000      0      0  0.000  0.000  0.000  0.000   3.62   0.00   0.00      0      0    250.6   0.00   0.00   0.27   0.81   0.70   0.28   0.00   0.00   0.00   0.00   0.00   0.00   0.00      0      0      0       0       3
 1992 256    36    33    6.0      1   0.18     75     14      0    100     89      0    0.0  0.000      0      0  0.000  0.000  0.000  0.000   3.71   0.00   0.00      0      0    243.6   0.00   0.00   0.28   0.92   0.83   0.40   0.00   0.00   0.00   0.00   0.00   0.00   0.00      0      0      0       0       4
 1992 257    37    34    6.0      1   0.20     82     14      0    109     96      0    0.0  0.000      0      0  0.000  0.000  0.000  0.000   3.88   0.00   0.00      0      0    239.6   0.00   0.00   0.28   0.97   0.89   0.45   0.00   0.00   0.00   0.00   0.00   0.00   0.00      0      0      0       0       4
 1992 258    38    35    6.0      1   0.21     90     14      0    132    104      0    0.0  0.000      0      0  0.000  0.000  0.000  0.000   3.82   0.00   0.00      0      0    235.0   0.00   0.00   0.29   1.11   1.05   0.61   0.00   0.00   0.00   0.00   0.00   0.00   0.00      0      0      0       0       5
 1992 259    39    36    7.0      1   0.23    102     14      0    160    116      0    0.0  0.000      0      0  0.000  0.000  0.000  0.000   3.70   0.00   0.00      0      0    229.2   0.00   0.00   0.30   1.27   1.23   0.79   0.00   0.00   0.00   0.00   0.00   0.00   0.00      0      0      0       0       5
 1992 260    40    37    7.0      1   0.26    118     14      0    174    132      0    0.0  0.000      0      0  0.000  0.000  0.000  0.000   3.60   0.00   0.00      0      0    222.4   0.00   0.00   0.31   1.35   1.32   0.89   0.00   0.00   0.00   0.00   0.00   0.00   0.00      0      0      0       0       6
 1992 261    41    38    7.0      1   0.30    142     14      0    192    156      0    0.0  0.000      0      0  0.000  0.000  0.000  0.000   3.43   0.00   0.00      0      0    213.8   0.00   0.00   0.31   1.41   1.44   1.02   0.00   0.00   0.00   0.00   0.00   0.00   0.00      0      0      0       0       7
 1992 262    42    39    7.0      1   0.32    153     14      0    225    167      0    0.0  0.000      0      0  0.000  0.000  0.000  0.000   3.79   0.00   0.00      0      0    210.6   0.00   0.00   0.32   1.53   1.65   1.26   0.01   0.00   0.00   0.00   0.00   0.00   0.00      0      0      0       0       8
 1992 263    43    40    8.0      1   0.34    164     14      0    269    178      0    0.0  0.000      0      0  0.000  0.000  0.000  0.000   3.79   0.00   0.00      0      0    206.6   0.00   0.00   0.33   1.69   1.94   1.57   0.03   0.00   0.00   0.00   0.00   0.00   0.00      0      0      0       0       9
 1992 264    44    41    8.0      1   0.37    185     14      0    313    199      0    0.0  0.000      0      0  0.000  0.000  0.000  0.000   3.60   0.00   0.00      0      0    202.2   0.00   0.00   0.34   1.84   2.22   1.88   0.06   0.00   0.00   0.00   0.00   0.00   0.00      0      0      0       0      11
 1992 265    45    42    8.0      1   0.43    219     14      0    355    233      0    0.0  0.000      0      0  0.000  0.000  0.000  0.000   3.40   0.00   0.00      0      0    195.5   0.00   0.00   0.36   1.99   2.48   2.16   0.10   0.00   0.00   0.00   0.00   0.00   0.00      0      0      0       0      12
 1992 266    46    43    8.0      1   0.44    226     14      0    360    240      0    0.0  0.000      0      0  0.000  0.000  0.000  0.000   3.86   0.00   0.00      0      0    194.2   0.00   0.00   0.36   2.00   2.51   2.20   0.11   0.00   0.00   0.00   0.00   0.00   0.00      0      0      0       0      14
 1992 267    47    44    8.0      1   0.46    240     14      0    399    254      0    0.0  0.000      0      0  0.000  0.000  0.000  0.000   3.75   0.00   0.00      0      0    191.8   0.00   0.00   0.37   2.08   2.75   2.47   0.15   0.00   0.00   0.00   0.00   0.00   0.00      0      0      0       0      16
 1992 268    48    45    8.0      1   0.48    251     14      0    404    265      0    0.0  0.000      0      0  0.000  0.000  0.000  0.000   3.80   0.00   0.00      0      0    190.1   0.00   0.00   0.37   2.08   2.78   2.51   0.16   0.00   0.00   0.00   0.00   0.00   0.00      0      0      0       0      18
 1992 269    49    46    8.0      1   0.47    254     14      0    431    268      0    0.0  0.000      0      0  0.000  0.000  0.000  0.160   3.90   0.00   0.00      0      0    185.3   0.00   0.00   0.37   2.11   2.94   2.70   0.20   0.00   0.00   0.00   0.00   0.00   0.00      0      0      0       0      20
 1992 270    50    47    9.0      1   0.35    258     14      0    458    272      0    0.0  0.000      0      0  0.000  0.000  0.000  0.182   3.89   0.00   0.00      0      0    134.9   0.00   0.00   0.38   2.14   3.11   2.89   0.24   0.00   0.00   0.00   0.00   0.00   0.00      0      0      0       0      22
 1992 271    51    48    9.0      1   0.36    274     14      0    503    288      0    0.0  0.000      0      0  0.000  0.000  0.000  0.045   3.72   0.00   0.00      0      0    132.9   0.00   0.00   0.38   2.21   3.37   3.22   0.31   0.00   0.00   0.00   0.00   0.00   0.00      0      0      0       0      24
 1992 272    52    49    9.0      1   0.40    296     14      0    554    310      0    0.0  0.000      0      0  0.000  0.000  0.000  0.000   3.65   0.00   0.00      0      0    133.7   0.00   0.00   0.39   2.30   3.66   3.57   0.40   0.00   0.00   0.00   0.00   0.00   0.00      0      0      0       0      27
 1992 273    53    50    9.0      1   0.44    323     14      0    607    337      0    0.0  0.000      0      0  0.000  0.000  0.000  0.000   3.59   0.00   0.00      0      0    135.0   0.00   0.00   0.40   2.40   3.96   3.92   0.50   0.00   0.00   0.00   0.00   0.00   0.00      0      0      0       0      29
 1992 274    54    51    9.0      2   0.51    343     14      0    666    357      0    0.0  0.000      0      0  0.000  0.000  0.000  0.000   3.67   0.00   0.00      0      0    148.3   0.00   0.00   0.42   2.52   4.00   4.00   0.62   0.00   0.00   0.00   0.00   0.00   0.00      0      0      0       0      32
 1992 275    55    52   10.0      2   0.58    390     14      0    684    404      0    0.0  0.000      0      0  0.000  0.000  0.002  0.000   3.44   0.00   0.00      0      0    149.1   0.00   0.00   0.43   2.56   4.00   4.00   0.67   0.00   0.00   0.00   0.00   0.00   0.00      0      0      0       0      36
 1992 276    56    53   10.0      2   0.65    434     14      0    706    448      0    0.0  0.000      0      0  0.000  0.000  0.000  0.000   3.44   0.00   0.00      0      0    149.3   0.00   0.00   0.45   2.61   4.00   4.00   0.72   0.00   0.00   0.00   0.00   0.00   0.00      0      0      0       0      39
 1992 277    57    54   10.0      2   0.71    474     14      0    760    488      0    0.0  0.000      0      0  0.000  0.000  0.000  0.000   3.78   0.00   0.00      0      0    149.2   0.00   0.00   0.46   2.74   4.00   4.00   0.87   0.00   0.00   0.00   0.00   0.00   0.00      0      0      0       0      43
 1992 278    58    55   10.0      3   0.78    531     14      0    812    545      0    0.0  0.000      0      0  0.000  0.000  0.022  0.000   3.68   0.00   0.00      0      0    147.0   0.00   0.00   0.47   2.86   4.00   4.00   1.00   0.01   0.00   0.00   0.00   0.00   0.00      0      0      0       0      47
 1992 279    59    56   11.0      3   0.83    567     14      0    825    581      0    0.0  0.000      0      0  0.000  0.000  0.022  0.000   3.58   0.00   0.00      0      0    146.3   0.00   0.00   0.48   2.89   4.00   4.00   1.04   0.02   0.00   0.00   0.00   0.00   0.00      0      0      0       0      51
 1992 280    60    57   11.0      3   0.85    587     14      0    907    601      0    0.0  0.000      0      0  0.000  0.000  0.022  0.000   3.61   0.00   0.00      0      0    145.7   0.00   0.00   0.49   3.06   4.00   4.00   1.24   0.05   0.00   0.00   0.00   0.00   0.00      0      0      0       0      55
 1992 281    61    58   11.0      3   0.85    602     14      0    969    617      0    0.0  0.000      0      0  0.000  0.000  0.022  0.000   3.61   0.00   0.00      0      0    140.8   0.00   0.00   0.49   3.18   4.00   4.00   1.40   0.08   0.00   0.00   0.00   0.00   0.00      0      0      0       0      59
 1992 282    62    59   11.0      3   0.82    626     15      0   1067    640      0    0.0  0.000      0      0  0.000  0.000  0.022  0.000   3.56   0.00   0.00      0      0    131.2   0.00   0.00   0.49   3.37   4.00   4.00   1.64   0.13   0.00   0.00   0.00   0.00   0.00      0      0      0       0      64
 1992 283    63    60   11.0      3   0.87    660     15      0   1170    675      0    0.0  0.000      0      0  0.000  0.000  0.022  0.000   3.53   0.00   0.00      0      0    131.1   0.00   0.00   0.50   3.57   4.00   4.00   1.90   0.20   0.00   0.00   0.00   0.00   0.00      0      0      0       0      69
 1992 284    64    61   11.0      3   0.93    710     16      0   1274    727      0    0.0  0.000      0      0  0.000  0.000  0.022  0.000   3.50   0.00   0.00      0      0    131.1   0.00   0.00   0.51   3.76   4.00   4.00   2.16   0.27   0.00   0.00   0.00   0.00   0.00      0      0      0       0      75
 1992 285    65    62   11.0      3   1.01    775     19      0   1329    794      0    0.0  0.000      0      0  0.000  0.000  0.022  0.000   3.47   0.00   0.00      0      0    130.9   0.00   0.00   0.53   3.86   4.00   4.00   2.30   0.32   0.00   0.00   0.00   0.00   0.00      0      0      0       0      82
 1992 286    66    63   12.0      3   1.11    853     23      0   1417    876      0    0.0  0.000      0      0  0.000  0.000  0.022  0.000   3.44   0.00   0.00      0      0    130.5   0.00   0.00   0.54   4.00   4.00   4.00   2.52   0.41   0.00   0.00   0.00   0.00   0.00      0      0      0       0      88
 1992 287    67    64   12.0      3   1.20    924     27      0   1531    951      0    0.0  0.000      0      0  0.000  0.000  0.022  0.000   3.41   0.00   0.00      0      0    130.0   0.00   0.00   0.55   4.00   4.00   4.00   2.80   0.55   0.00   0.00   0.00   0.00   0.00      0      0      0       0      95
 1992 288    68    65   12.0      3   1.32   1023     36      0   1633   1059      0    0.0  0.000      0      0  0.000  0.000  0.022  0.000   3.38   0.00   0.00      0      0    129.3   0.00   0.00   0.56   4.00   4.00   4.00   3.06   0.69   0.00   0.00   0.00   0.00   0.00      0      0      0       0     103
 1992 289    69    66   13.0      3   1.42   1108     47      0   1630   1154      0    0.0  0.000      0      0  0.000  0.000  0.022  0.000   3.33   0.00   0.00      0      0    128.5   0.00   0.00   0.58   3.98   4.00   4.00   3.06   0.70   0.00   0.00   0.00   0.00   0.00      0      0      0       0     111
 1992 290    70    67   13.0      3   1.52   1191     59      0   1642   1250      0    0.0  0.000      0      0  0.000  0.000  0.022  0.000   3.30   0.00   0.00      0      0    127.7   0.00   0.00   0.60   3.96   4.00   4.00   3.10   0.73   0.00   0.00   0.00   0.00   0.00      0      0      0       0     119
 1992 291    71    68   13.0      3   1.60   1262     71      0   1767   1334      0    0.0  0.000      0      0  0.000  0.000  0.022  0.000   3.27   0.00   0.00      0      0    127.0   0.00   0.00   0.61   3.95   4.00   4.00   3.45   1.00   0.00   0.00   0.00   0.00   0.00      0      0      0       0     128
 1992 292    72    69   13.0      3   1.66   1316     82      0   1925   1398      0    0.0  0.000      0      0  0.000  0.000  0.022  0.014   3.25   0.00   0.00      0      0    126.3   0.00   0.00   0.61   3.95   4.00   4.00   3.91   1.34   0.01   0.00   0.00   0.00   0.00      0      0      0       0     136
 1992 293    73    70   14.0      3   1.73   1380     96      0   1947   1476      0    0.0  0.000      0      0  0.000  0.000  0.022  0.000   3.23   0.00   0.00      0      0    125.6   0.00   0.00   0.62   3.93   4.00   4.00   3.98   1.40   0.01   0.00   0.00   0.00   0.00      0      0      0       0     146
 1992 294    74    71   14.0      3   1.79   1435    109      0   2095   1544      0    0.0  0.000      0      0  0.000  0.000  0.022  0.000   3.21   0.00   0.00      0      0    125.0   0.00   0.00   0.63   3.92   4.00   4.00   4.00   1.73   0.02   0.00   0.00   0.00   0.00      0      0      0       0     156
 1992 295    75    72   14.0      3   1.85   1485    122      0   2264   1607      0    0.0  0.000      0      0  0.000  0.000  0.022  0.000   3.20   0.00   0.00      0      0    124.3   0.00   0.00   0.64   3.90   4.00   4.00   4.00   2.10   0.04   0.00   0.00   0.00   0.00      0      0      0       0     166
 1992 296    76    73   14.0      3   1.92   1556    142      0   2411   1698      0    0.0  0.000      0      0  0.000  0.000  0.022  0.000   3.17   0.00   0.00      0      0    123.6   0.00   0.00   0.65   3.88   4.00   4.00   4.00   2.44   0.06   0.00   0.00   0.00   0.00      0      0      0       0     178
 1992 297    77    74   14.0      3   2.03   1658    176      0   2538   1834      0    0.0  0.000      0      0  0.000  0.000  0.022  0.000   3.14   0.00   0.00      0      0    122.7   0.00   0.00   0.66   3.86   4.00   4.00   4.00   2.74   0.09   0.00   0.00   0.00   0.00      0      0      0       0     190
 1992 298    78    75   15.0      3   2.18   1790    228      0   2642   2018      0    0.0  0.000      0      0  0.000  0.000  0.022  0.000   3.10   0.00   0.00      0      0    121.6   0.00   0.00   0.68   3.85   4.00   4.00   4.00   3.02   0.12   0.00   0.00   0.00   0.00      0      0      0       0     202
 1992 299    79    76   15.0      3   2.28   1891    275      0   2637   2166      0    0.0  0.000      0      0  0.000  0.000  0.022  0.000   3.06   0.00   0.00      0      0    120.7   0.00   0.00   0.69   3.82   3.98   4.00   4.00   3.02   0.12   0.00   0.00   0.00   0.00      0      0      0       0     216
 1992 300    80    77   15.0      3   2.42   2022    344      0   2760   2366      0    0.0  0.000      0      0  0.000  0.000  0.022  0.000   3.03   0.00   0.00      0      0    119.7   0.00   0.00   0.71   3.82   4.00   4.00   4.00   3.39   0.19   0.00   0.00   0.00   0.00      0      0      0       0     229
 1992 301    81    78   16.0      3   2.56   2161    427      0   2881   2588      0    0.0  0.000      0      0  0.000  0.000  0.022  0.000   2.99   0.00   0.00      0      0    118.6   0.00   0.00   0.72   3.83   4.00   4.00   4.00   3.85   0.29   0.00   0.00   0.00   0.00      0      0      0       0     243
 1992 302    82    79   16.0      3   2.59   2190    446      0   2908   2636      0    0.0  0.000      0      0  0.000  0.000  0.022  0.000   3.00   0.00   0.00      0      0    118.1   0.00   0.00   0.73   3.83   3.99   3.99   4.00   4.00   0.33   0.00   0.00   0.00   0.00      0      0      0       0     257
 1992 303    83    80   16.0      3   2.53   2244    481      0   3103   2725      0    0.0  0.000      0      0  0.000  0.000  0.022  0.000   2.96   0.00   0.00      0      0    112.7   0.00   0.00   0.73   3.88   4.00   4.00   4.00   4.00   0.55   0.00   0.00   0.00   0.00      0      0      0       0     271
 1992 304    84    81   16.0      3   2.58   2303    523      0   3281   2826      0    0.0  0.000      0      0  0.000  0.000  0.022  0.000   2.93   0.00   0.00      0      0    112.2   0.00   0.00   0.74   3.96   4.00   4.00   4.00   4.00   0.76   0.00   0.00   0.00   0.00      0      0      0       0     287
 1992 305    85    82   16.0      3   2.65   2374    575      0   3449   2948      0    0.0  0.000      0      0  0.000  0.000  0.022  0.000   2.88   0.00   0.00      0      0    111.7   0.00   0.00   0.75   4.00   4.00   4.00   4.00   4.00   0.98   0.00   0.00   0.00   0.00      0      0      0       0     303
 1992 306    86    83   17.0      3   2.75   2470    651      0   3595   3121      0    0.0  0.000      0      0  0.000  0.000  0.022  0.000   2.78   0.00   0.00      0      0    111.2   0.00   0.00   0.76   4.00   4.00   4.00   4.00   4.00   1.18   0.00   0.00   0.00   0.00      0      0      0       0     321
 1992 307    87    84   17.0      3   2.87   2601    767      0   3708   3368      0    0.0  0.000      0      0  0.000  0.000  0.022  0.000   2.62   0.00   0.00      0      0    110.5   0.00   0.00   0.78   4.00   4.00   4.00   4.00   4.00   1.36   0.00   0.00   0.00   0.00      0      0      0       0     339
 1992 308    88    85   17.0      3   2.93   2665    826      0   3833   3491      0    0.0  0.000      0      0  0.000  0.000  0.022  0.000   2.57   0.00   0.00      0      0    110.0   0.00   0.00   0.78   4.00   4.00   4.00   4.00   4.00   1.54   0.00   0.00   0.00   0.00      0      0      0       0     357
 1992 309    89    86   17.0      3   2.95   2689    850      0   3943   3539      0    0.0  0.000      0      0  0.000  0.000  0.029  0.015   2.56   0.00   0.00      0      0    109.6   0.00   0.00   0.79   4.00   4.00   4.00   4.00   4.00   1.69   0.00   0.00   0.00   0.00      0      0      0       0     376
 1992 310    90    87   17.0      3   2.65   2717    877      0   4051   3595      0    0.0  0.000      0      0  0.000  0.000  0.032  0.000   2.55   0.00   0.00      0      0     97.6   0.00   0.00   0.79   4.00   4.00   4.00   4.00   4.00   1.78   0.00   0.00   0.00   0.00      0      0      0       0     396
 1992 311    91    88   17.0      3   2.66   2762    922      0   4218   3683      0    0.0  0.000      0      0  0.000  0.000  0.032  0.000   2.51   0.00   0.00      0      0     96.3   0.00   0.00   0.80   4.00   4.00   4.00   4.00   4.00   1.93   0.00   0.00   0.00   0.00      0      0      0       0     416
 1992 312    92    89   18.0      3   2.71   2823    986      0   4384   3810      0    0.0  0.000      0      0  0.000  0.000  0.032  0.000   2.44   0.00   0.00      0      0     96.0   0.00   0.00   0.80   4.00   4.00   4.00   4.00   4.00   2.08   0.00   0.00   0.00   0.00      0      0      0       0     437
 1992 313    93    90   18.0      3   2.78   2907   1079      0   4530   3986      0    0.0  0.000      0      0  0.000  0.000  0.033  0.000   2.34   0.00   0.00      0      0     95.8   0.00   0.00   0.81   4.00   4.00   4.00   4.00   4.00   2.22   0.00   0.00   0.00   0.00      0      0      0       0     459
 1992 314    94    91   18.0      3   2.89   3021   1215      0   4642   4237      0    0.0  0.000      0      0  0.000  0.000  0.036  0.000   2.21   0.00   0.00      0      0     95.5   0.00   0.00   0.83   4.00   4.00   4.00   4.00   4.00   2.34   0.00   0.00   0.00   0.00      0      0      0       0     482
 1992 315    95    92   18.0      3   2.98   3125   1254      0   4627   4379      0    0.0  0.000      0      0  0.000  0.000  0.040  0.000   2.15   0.00   0.00      0      0     95.2   0.00   0.00   0.84   4.00   4.00   4.00   3.99   3.99   2.34   0.00   0.00   0.00   0.00      0      0      0       0     505
 1992 316    96    93   19.0      3   3.15   3320   1451      0   4625   4770      0    0.0  0.000      0      0  0.000  0.000  0.047  0.000   1.99   0.00   0.00      0      0     94.9   0.00   0.00   0.86   4.00   4.00   4.00   4.00   4.00   2.35   0.00   0.00   0.00   0.00      0      0      0       0     528
 1992 317    97    94   19.0      3   3.28   3473   1662      0   4681   5135      0    0.0  0.000      0      0  0.000  0.000  0.050  0.000   1.86   0.00   0.00      0      0     94.4   0.00   0.00   0.87   4.00   4.00   4.00   4.00   4.00   2.42   0.00   0.00   0.00   0.00      0      0      0       0     551
 1992 318    98    95   20.0      3   3.36   3581   1836      0   4779   5418      0    0.0  0.000      0      0  0.000  0.000  0.063  0.000   1.77   0.00   0.00      0      0     93.8   0.00   0.00   0.89   4.00   4.00   4.00   4.00   4.00   2.55   0.00   0.00   0.00   0.00      0      0      0       0     575
 1992 319    99    96   20.0      3   3.43   3690   2039      0   4777   5729      0    0.0  0.000      0      0  0.000  0.000  0.075  0.000   1.68   0.00   0.00      0      0     93.0   0.00   0.00   0.90   4.00   4.00   4.00   4.00   4.00   2.56   0.00   0.00   0.00   0.00      0      0      0       0     599
 1992 320   100    97   20.0      3   3.48   3776   2216      0   4831   5992      0    0.0  0.000      0      0  0.000  0.000  0.084  0.000   1.62   0.00   0.00      0      0     92.1   0.00   0.00   0.91   4.00   4.00   4.00   4.00   4.00   2.63   0.10   0.00   0.00   0.00      0      0      0       0     623
 1992 321   101    98   20.0      3   3.48   3822   2318      0   4993   6140      0    0.0  0.000      0      0  0.000  0.000  0.095  0.000   1.59   0.00   0.00      0      0     91.1   0.00   0.00   0.92   4.00   4.00   4.00   4.00   4.00   2.80   0.45   0.00   0.00   0.00      0      0      0       0     647
 1992 322   102    99   21.0      3   3.47   3858   2400      0   5160   6258      0    0.0  0.000      0      0  0.000  0.000  0.104  0.000   1.58   0.00   0.00      0      0     89.9   0.00   0.00   0.93   4.00   4.00   4.00   4.00   4.00   2.97   0.86   0.00   0.00   0.00      0      0      0       0     672
 1992 323   103   100   21.0      3   3.46   3898   2494      0   5324   6392      0    0.0  0.000      0      0  0.000  0.000  0.105  0.000   1.56   0.00   0.00      0      0     88.8   0.00   0.00   0.94   4.00   4.00   4.00   4.00   4.00   3.14   1.28   0.00   0.00   0.00      0      0      0       0     698
 1992 324   104   101   21.0      3   3.47   3956   2638      0   5460   6594      0    0.0  0.000      0      0  0.000  0.000  0.104  0.000   1.53   0.00   0.00      0      0     87.8   0.00   0.00   0.95   4.00   4.00   4.00   4.00   4.00   3.28   1.66   0.00   0.00   0.00      0      0      0       0     724
 1992 325   105   102   21.0      3   3.49   4022   2811      0   5511   6832      0    0.0  0.000      0      0  0.000  0.000  0.103  0.000   1.49   0.00   0.00      0      0     86.7   0.00   0.00   0.96   4.00   4.00   4.00   4.00   4.00   3.33   1.85   0.00   0.00   0.00      0      0      0       0     751
 1992 326   106   103   22.0      3   3.48   4058   2913      0   5492   6971      0    0.0  0.000      0      0  0.000  0.000  0.107  0.000   1.47   0.00   0.00      0      0     85.7   0.00   0.00   0.97   4.00   4.00   4.00   3.99   3.99   3.32   1.86   0.00   0.00   0.00      0      0      0       0     779
 1992 327   107   104   22.0      3   3.45   4087   2993      0   5637   7079      0    0.0  0.000      0      0  0.000  0.000  0.113  0.000   1.46   0.00   0.00      0      0     84.5   0.00   0.00   0.98   4.00   4.00   4.00   4.00   4.00   3.48   2.19   0.00   0.00   0.00      0      0      0       0     806
 1992 328   108   105   22.0      3   3.43   4110   3061      0   5758   7171      0    0.0  0.000      0      0  0.000  0.000  0.115  0.000   1.45   0.00   0.00      0      0     83.4   0.00   0.00   0.98   4.00   4.00   4.00   4.00   4.00   3.61   2.41   0.00   0.00   0.00      0      0      0       0     835
 1992 329   109   106   22.0      3   3.42   4152   3187      0   5856   7339      0    0.0  0.000      0      0  0.000  0.000  0.115  0.000   1.42   0.00   0.00      0      0     82.3   0.00   0.00   0.99   4.00   4.00   4.00   4.00   4.00   3.73   2.55   0.00   0.00   0.00      0      0      0       0     863
 1992 330   110   107   22.0      3   3.41   4199   3326      0   5926   7525      0    0.0  0.000      0      0  0.000  0.000  0.115  0.000   1.40   0.00   0.00      0      0     81.2   0.00   0.00   1.00   4.00   4.00   4.00   4.00   4.00   3.82   2.60   0.00   0.00   0.00      0      0      0       0     893
 1992 331   111   108   22.0      3   3.41   4248   3470      0   5966   7718      0    0.0  0.000      0      0  0.000  0.000  0.117  0.000   1.37   0.00   0.00      0      0     80.2   0.00   0.00   1.01   4.00   4.00   4.00   4.00   4.00   3.88   2.63   0.00   0.00   0.00      0      0      0       0     922
 1992 332   112   109   22.0      3   3.40   4296   3611      0   6105   7907      0    0.0  0.000      0      0  0.000  0.000  0.120  0.000   1.34   0.00   0.00      0      0     79.1   0.00   0.00   1.03   4.00   4.00   4.00   4.00   4.00   4.00   2.71   0.00   0.00   0.00      0      0      0       0     952
 1992 333   113   110   22.0      3   3.39   4346   3756      0   6159   8102      0    0.0  0.000      0      0  0.000  0.000  0.124  0.000   1.32   0.00   0.00      0      0     78.1   0.00   0.00   1.04   4.00   4.00   4.00   4.00   4.00   4.00   2.75   0.00   0.00   0.00      0      0      0       0     983
 1992 334   114   111   22.0      3   3.39   4406   3932      0   6182   8338      0    0.0  0.000      0      0  0.000  0.000  0.126  0.000   1.29   0.00   0.00      0      0     77.0   0.00   0.00   1.05   4.00   4.00   4.00   4.00   4.00   4.00   2.77   0.00   0.00   0.00      0      0      0       0    1013
 1992 335   115   112   22.0      3   3.39   4466   4106      0   6223   8572      0    0.0  0.000      0      0  0.000  0.000  0.129  0.000   1.26   0.00   0.00      0      0     76.0   0.00   0.00   1.07   4.00   4.00   4.00   4.00   4.00   4.00   2.81   0.00   0.00   0.00      0      0      0       0    1044
 1992 336   116   113   22.0      4   3.34   4420   3465      0   6367   8683      0    0.0  0.000    798      0  0.000  0.000  0.135  0.003   1.38   0.00   0.09      0    798     75.5   0.00   0.00   1.08   4.00   4.00   4.00   4.00   4.00   4.00   2.94   0.00   0.00   0.00      0      0      0       0    1076
 1992 337   117   114   22.0      4   3.28   4373   3501      0   6531   8760      0    0.0  0.000    887      0  0.000  0.000  0.139  0.000   1.39   0.00   0.10      0    887     75.0   0.00   0.00   1.09   4.00   4.00   4.00   4.00   4.00   4.00   3.09   0.00   0.00   0.00      0      0      0       0    1107
 1992 338   118   115   22.0      4   3.24   4323   3549      0   6646   8878      0    0.0  0.000   1006      0  0.000  0.000  0.106  0.000   1.39   0.00   0.11      0   1006     74.9   0.00   0.00   1.09   4.00   4.00   4.00   4.00   4.00   4.00   3.18   0.07   0.00   0.00      0      0      0       0    1140
 1992 339   119   116   22.0      4   3.20   4270   3610      0   6774   9041      0    0.0  0.000   1160      0  0.000  0.000  0.099  0.000   1.40   0.00   0.13      0   1160     74.8   0.00   0.00   1.10   4.00   4.00   4.00   4.00   4.00   4.00   3.29   0.18   0.00   0.00      0      0      0       0    1173
 1992 340   120   117   22.0      4   3.16   4215   3672      0   6799   9200      0    0.0  0.000   1314      0  0.000  0.000  0.094  0.000   1.41   0.00   0.14      0   1314     74.9   0.00   0.00   1.11   4.00   4.00   4.00   4.00   4.00   4.00   3.32   0.24   0.00   0.00      0      0      0       0    1207
 1992 341   121   118   22.0      4   3.12   4156   3750      0   6854   9415      0    0.0  0.000   1509      0  0.000  0.000  0.088  0.000   1.41   0.00   0.16      0   1509     75.2   0.00   0.00   1.12   4.00   4.00   4.00   4.00   4.00   4.00   3.36   0.34   0.00   0.00      0      0      0       0    1241
 1992 342   122   119   22.0      4   3.09   4094   3813      0   6919   9574      0    0.0  0.000   1667      0  0.000  0.000  0.083  0.000   1.42   0.00   0.17      0   1667     75.5   0.00   0.00   1.13   4.00   4.00   4.00   4.00   4.00   4.00   3.42   0.46   0.00   0.00      0      0      0       0    1275
 1992 343   123   120   22.0      4   3.06   4030   3879      0   6997   9741      0    0.0  0.000   1832      0  0.000  0.000  0.078  0.003   1.42   0.00   0.19      0   1832     76.0   0.00   0.00   1.14   4.00   4.00   4.00   4.00   4.00   4.00   3.48   0.60   0.00   0.00      0      0      0       0    1310
 1992 344   124   121   22.0      4   3.03   3962   3947      0   7032   9913      0    0.0  0.000   2003      0  0.000  0.000  0.073  0.000   1.43   0.00   0.20      0   2003     76.6   0.00   0.00   1.15   4.00   4.00   4.00   4.00   4.00   4.00   3.51   0.69   0.00   0.00      0      0      0       0    1345
 1992 345   125   122   22.0      4   3.01   3892   4023      0   7071  10105      0    0.0  0.000   2191      0  0.000  0.000  0.068  0.000   1.44   0.00   0.22      0   2191     77.3   0.00   0.00   1.16   4.00   4.00   4.00   4.00   4.00   4.00   3.55   0.77   0.00   0.00      0      0      0       0    1380
 1992 346   126   123   22.0      4   2.98   3818   4090      0   7128  10269      0    0.0  0.000   2361      0  0.000  0.000  0.063  0.000   1.45   0.00   0.23      0   2361     78.1   0.00   0.00   1.17   4.00   4.00   4.00   4.00   4.00   4.00   3.60   0.88   0.00   0.00      0      0      0       0    1415
 1992 347   127   124   22.0      4   2.96   3742   4155      0   7248  10420      0    0.0  0.000   2523      0  0.000  0.000  0.059  0.000   1.45   0.00   0.24      0   2523     79.1   0.00   0.00   1.18   4.00   4.00   4.00   4.00   4.00   4.00   3.69   1.03   0.00   0.00      0      0      0       0    1451
 1992 348   128   125   22.0      4   2.94   3662   4232      0   7359  10611      0    0.0  0.000   2716      0  0.000  0.000  0.055  0.000   1.46   0.00   0.26      0   2716     80.3   0.00   0.00   1.19   4.00   4.00   4.00   4.00   4.00   4.00   3.78   1.16   0.00   0.00      0      0      0       0    1487
 1992 349   129   126   22.0      5   2.91   3662   4232    277   7379  10888   3677    7.5  0.025   2993      7  0.000  0.000  0.097  0.000   1.42   9.26   0.27      0   2993     79.3   0.00   0.00   1.20   4.00   4.00   4.00   4.00   4.00   4.00   3.81   1.19   0.00   0.00      0      0      0       0    1524
 1992 350   130   127   22.0      5   2.87   3662   4232    475   7423  11085   3677   12.9  0.043   3191      7  0.000  0.000  0.109  0.000   1.39  14.88   0.29      0   3191     78.3   0.00   0.00   1.21   4.00   4.00   4.00   4.00   4.00   4.00   3.85   1.23   0.00   0.00      0      0      0       0    1561
 1992 351   131   128   22.0      5   2.83   3662   4232    720   7431  11331   3677   19.6  0.064   3436      7  0.000  0.000  0.111  0.000   1.35  20.96   0.30      0   3436     77.2   0.00   0.00   1.21   4.00   4.00   4.00   4.00   4.00   4.00   3.87   1.23   0.00   0.00      0      0      0       0    1598
 1992 352   132   129   22.0      5   2.79   3662   4232    996   7407  11607   3677   27.1  0.086   3712      7  0.000  0.000  0.116  0.000   1.31  26.83   0.32      0   3712     76.1   0.00   0.00   1.22   4.00   4.00   4.00   4.00   4.00   3.99   3.86   1.23   0.00   0.00      0      0      0       0    1635
 1992 353   133   130   22.0      5   2.74   3662   4232   1271   7426  11881   3677   34.6  0.107   3987      7  0.000  0.000  0.122  0.000   1.27  31.87   0.34      0   3987     74.9   0.00   0.00   1.23   4.00   4.00   4.00   4.00   4.00   4.00   3.88   1.25   0.00   0.00      0      0      0       0    1672
 1992 354   134   131   22.0      5   2.70   3662   4232   1546   7394  12157   3677   42.1  0.127   4262      7  0.000  0.000  0.129  0.000   1.23  36.28   0.35      0   4262     73.7   0.00   0.00   1.25   4.00   4.00   4.00   3.99   3.99   3.99   3.86   1.24   0.00   0.00      0      0      0       0    1709
 1992 355   135   132   22.0      5   2.65   3662   4232   1822   7419  12433   3677   49.6  0.147   4538      7  0.000  0.000  0.134  0.000   1.20  40.15   0.37      0   4538     72.4   0.00   0.00   1.25   4.00   4.00   4.00   4.00   4.00   4.00   3.89   1.26   0.00   0.00      0      0      0       0    1746
 1992 356   136   133   22.0      5   2.61   3662   4232   2098   7416  12709   3677   57.1  0.165   4814      7  0.000  0.000  0.141  0.000   1.16  43.58   0.38      0   4814     71.2   0.00   0.00   1.25   4.00   4.00   4.00   4.00   4.00   4.00   3.90   1.27   0.00   0.00      0      0      0       0    1784
 1992 357   137   134   22.0      5   2.56   3662   4136   2374   7379  12888   3677   64.6  0.184   5090      7  0.000  0.000  0.147  0.000   1.14  46.64   0.39      0   5090     69.9   0.00   0.00   1.25   4.00   4.00   4.00   4.00   4.00   4.00   3.90   1.27   0.00   0.00      0      0      0       0    1821
 1992 358   138   135   22.0      5   2.51   3662   4037   2650   7342  13065   3677   72.1  0.203   5366      7  0.000  0.000  0.154  0.000   1.11  49.38   0.41      0   5366     68.5   0.00   0.00   1.25   4.00   4.00   4.00   4.00   4.00   4.00   3.90   1.27   0.00   0.00      0      0      0       0    1858
 1992 359   139   136   22.0      5   2.46   3662   4118   2925   7345  13421   3677   79.6  0.218   5641      7  0.000  0.000  0.156  0.000   1.07  51.86   0.42      0   5641     67.2   0.00   0.00   1.25   4.00   4.00   4.00   4.00   4.00   4.00   3.91   1.27   0.00   0.00      0      0      0       0    1894
 1992 360   140   137   22.0      5   2.41   3662   4172   3173   7336  13723   3677   86.3  0.231   5889      7  0.000  0.000  0.159  0.000   1.03  53.88   0.43      0   5889     65.9   0.00   0.00   1.25   4.00   4.00   4.00   4.00   4.00   4.00   3.91   1.28   0.00   0.00      0      0      0       0    1931
 1992 361   141   138   22.0      5   2.36   3662   4232   3400   7362  14010   3677   92.4  0.243   6116      7  0.000  0.000  0.171  0.000   0.99  55.59   0.44      0   6116     64.4   0.00   0.00   1.25   4.00   4.00   4.00   4.00   4.00   4.00   3.94   1.30   0.00   0.00      0      0      0       0    1968
 1992 362   142   139   22.0      5   2.31   3662   4232   3626   7384  14237   3677   98.6  0.255   6342      7  0.000  0.000  0.180  0.000   0.97  57.18   0.45      0   6342     63.0   0.00   0.00   1.25   4.00   4.00   4.00   4.00   4.00   4.00   3.97   1.31   0.00   0.00      0      0      0       0    2004
 1992 363   143   140   22.0      5   2.25   3662   4232   3902   7389  14513   3677  106.1  0.269   6618      7  0.000  0.000  0.188  0.000   0.94  58.96   0.46      0   6618     61.5   0.00   0.00   1.25   4.00   4.00   4.00   4.00   4.00   4.00   3.98   1.32   0.00   0.00      0      0      0       0    2041
 1992 364   144   141   22.0      5   2.20   3662   4088   4178   7352  14644   3677  113.6  0.285   6894      7  0.000  0.000  0.196  0.000   0.92  60.60   0.47      0   6894     60.0   0.00   0.00   1.25   4.00   4.00   4.00   4.00   4.00   4.00   3.98   1.32   0.00   0.00      0      0      0       0    2078
 1992 365   145   142   22.0      5   2.14   3662   3964   4430   7315  14772   3677  120.5  0.300   7146      7  0.000  0.000  0.214  0.000   0.91  61.99   0.48      0   7146     58.5   0.00   0.00   1.25   4.00   4.00   4.00   4.00   4.00   4.00   3.98   1.32   0.00   0.00      0      0      0       0    2115
 1992 366   146   143   22.0      5   2.09   3662   3877   4643   7279  14898   3677  126.3  0.312   7359      7  0.000  0.000  0.216  0.000   0.89  63.09   0.49      0   7359     57.0   0.00   0.00   1.25   4.00   4.00   4.00   4.00   4.00   4.00   3.98   1.32   0.00   0.00      0      0      0       0    2152
 1993 001   147   144   22.0      5   2.03   3662   3773   4872   7242  15023   3677  132.5  0.324   7588      7  0.000  0.000  0.216  0.000   0.88  64.21   0.51      0   7588     55.5   0.00   0.00   1.25   4.00   4.00   4.00   4.00   4.00   4.00   3.98   1.32   0.00   0.00      0      0      0       0    2188
 1993 002   148   145   22.0      5   1.98   3662   3662   5105   7206  15145   3677  138.8  0.337   7821      7  0.000  0.000  0.229  0.288   0.86  65.27   0.52      0   7821     54.1   0.00   0.00   1.25   4.00   4.00   4.00   4.00   4.00   4.00   3.98   1.32   0.00   0.00      0      0      0       0    2224
 1993 003   149   146   22.0      5   1.93   3662   3543   5343   7170  15264   3677  145.3  0.350   8059      7  0.000  0.000  0.240  0.553   0.85  66.30   0.53      0   8059     52.6   0.00   0.00   1.25   4.00   4.00   4.00   4.00   4.00   4.00   3.98   1.32   0.00   0.00      0      0      0       0    2260
 1993 004   150   147   22.0      5   1.88   3662   3458   5618   7134  15454   3677  152.8  0.364   8334      7  0.000  0.000  0.248  0.553   0.82  67.41   0.54      0   8334     51.2   0.00   0.00   1.25   4.00   4.00   4.00   4.00   4.00   4.00   3.98   1.32   0.00   0.00      0      0      0       0    2296
 1993 005   151   148   22.0      5   1.82   3662   3466   5894   7103  15739   3677  160.3  0.374   8610      7  0.000  0.000  0.262  0.270   0.78  68.46   0.55      0   8610     49.8   0.00   0.00   1.25   3.93   3.93   3.93   3.92   3.92   3.92   3.89   1.30   0.00   0.00      0      0      0       0    2332
 1993 006   152   149   22.0      5   1.77   3662   3507   6170   7088  16055   3677  167.8  0.384   8886      7  0.000  0.000  0.282  0.070   0.75  69.43   0.55      0   8886     48.4   0.00   0.00   1.25   3.97   3.97   3.97   3.93   3.92   3.92   3.89   1.30   0.00   0.00      0      0      0       0    2367
 1993 007   153   150   22.0      5   1.72   3662   3372   6446   7052  16196   3677  175.3  0.398   9162      7  0.000  0.000  0.315  0.033   0.74  70.35   0.57      0   9162     46.9   0.00   0.00   1.25   3.97   3.97   3.97   3.93   3.92   3.92   3.89   1.30   0.00   0.00      0      0      0       0    2403
 1993 008   154   151   22.0      5   1.66   3662   3307   6722   7017  16407   3677  182.8  0.410   9438      7  0.000  0.000  0.357  0.191   0.71  71.22   0.58      0   9438     45.4   0.00   0.00   1.25   3.97   3.97   3.97   3.93   3.92   3.92   3.89   1.30   0.00   0.00      0      0      0       0    2438
 1993 009   155   152   22.0      5   1.61   3662   3335   6974   6996  16687   3677  189.6  0.418   9690      7  0.000  0.000  0.370  0.094   0.68  71.97   0.58      0   9690     44.0   0.00   0.00   1.25   4.00   4.00   4.00   3.93   3.92   3.91   3.88   1.30   0.00   0.00      0      0      0       0    2473
 1993 010   156   153   22.0      5   1.56   3662   3345   7250   6966  16973   3677  197.1  0.427   9966      7  0.000  0.000  0.393  0.035   0.66  72.75   0.59      0   9966     42.5   0.00   0.00   1.25   4.00   4.00   4.00   3.91   3.91   3.90   3.87   1.29   0.00   0.00      0      0      0       0    2508
 1993 011   157   154   22.0      5   1.50   3662   3346   7525   6932  17250   3677  204.6  0.436  10241      7  0.000  0.000  0.428  0.000   0.64  73.48   0.59      0  10241     41.1   0.00   0.00   1.25   3.98   3.98   3.98   3.90   3.89   3.88   3.85   1.28   0.00   0.00      0      0      0       0    2543
 1993 012   158   155   22.0      5   1.45   3662   3325   7801   6897  17505   3677  212.1  0.446  10517      7  0.000  0.000  0.459  0.000   0.62  74.18   0.60      0  10517     39.6   0.00   0.00   1.25   3.98   3.98   3.98   3.90   3.89   3.88   3.85   1.28   0.00   0.00      0      0      0       0    2578
 1993 013   159   156   22.0      5   1.40   3662   3224   8077   6863  17679   3677  219.6  0.457  10793      7  0.000  0.000  0.486  0.000   0.61  74.84   0.61      0  10793     38.1   0.00   0.00   1.25   3.98   3.98   3.98   3.90   3.89   3.88   3.85   1.28   0.00   0.00      0      0      0       0    2612
 1993 014   160   157   22.0      5   1.34   3662   3091   8353   6828  17823   3677  227.1  0.469  11069      7  0.000  0.000  0.512  0.000   0.60  75.46   0.62      0  11069     36.7   0.00   0.00   1.25   3.98   3.98   3.98   3.90   3.89   3.88   3.85   1.28   0.00   0.00      0      0      0       0    2646
 1993 015   161   158   22.0      5   1.29   3662   3019   8629   6794  18026   3677  234.6  0.479  11345      7  0.000  0.000  0.522  0.000   0.58  76.06   0.63      0  11345     35.3   0.00   0.00   1.25   3.98   3.98   3.98   3.90   3.89   3.88   3.85   1.28   0.00   0.00      0      0      0       0    2680
 1993 016   162   159   22.0      5   1.24   3662   2907   8744   6760  18030   3677  237.8  0.485  11460      7  0.000  0.000  0.531  0.000   0.59  76.30   0.64      0  11460     33.9   0.00   0.00   1.25   3.98   3.98   3.98   3.90   3.89   3.88   3.85   1.28   0.00   0.00      0      0      0       0    2714
 1993 017   163   160   22.0      5   1.19   3662   2907   8912   6726  18197   3677  242.3  0.490  11628      7  0.000  0.000  0.524  0.069   0.58  76.64   0.64      0  11628     32.6   0.00   0.00   1.25   3.98   3.98   3.98   3.90   3.89   3.88   3.85   1.28   0.00   0.00      0      0      0       0    2748
 1993 018   164   161   22.0      5   1.15   3662   2909   9092   6693  18380   3677  247.3  0.495  11808      7  0.000  0.000  0.516  0.019   0.57  77.00   0.64      0  11808     31.4   0.00   0.00   1.25   3.98   3.98   3.98   3.90   3.89   3.88   3.85   1.28   0.00   0.00      0      0      0       0    2782
 1993 019   165   162   22.0      5   1.15   3662   2909   9092   6693  18380   3677  247.3  0.495  11808      7  0.000  0.000  0.516  0.019   0.57  77.00   0.64      0  11808     31.4   0.00   0.00   1.25   3.98   3.98   3.98   3.90   3.89   3.88   3.85   1.28   0.00   0.00      0      0      0       0    2782
 1993 020   166   163   22.0      5   1.15   3662   2909   9092   6693  18380   3677  247.3  0.495  11808      7  0.000  0.000  0.516  0.019   0.57  77.00   0.64      0  11808     31.4   0.00   0.00   1.25   3.98   3.98   3.98   3.90   3.89   3.88   3.85   1.28   0.00   0.00      0      0      0       0    2782
 1993 021   167   164   22.0      5   1.15   3662   2909   9092   6693  18380   3677  247.3  0.495  11808      7  0.000  0.000  0.516  0.019   0.57  77.00   0.64      0  11808     31.4   0.00   0.00   1.25   3.98   3.98   3.98   3.90   3.89   3.88   3.85   1.28   0.00   0.00      0      0      0       0    2782
 1993 022   168   165   22.0      5   1.15   3662   2909   9092   6693  18380   3677  247.3  0.495  11808      7  0.000  0.000  0.516  0.019   0.57  77.00   0.64      0  11808     31.4   0.00   0.00   1.25   3.98   3.98   3.98   3.90   3.89   3.88   3.85   1.28   0.00   0.00      0      0      0       0    2782

*DSSAT Cropping System Model Ver. 4.0.2.000               Aug 11, 2016; 20:58:25

*RUN   2        : UYMZ                    
 MODEL          : MZCER040 - Maize           
 EXPERIMENT     : UYMZ0185 MZ    late to create DSS                             
 TREATMENT  1   : UYMZ                    

@YEAR DOY   DAS   DAP   L#SD   GSTD   LAID   LWAD   SWAD   GWAD   RWAD   CWAD   G#AD   GWGD   HIAD   PWAD   P#AD   WSPD   WSGD   NSTD   EWSD   LN%D   SH%D   HIPD   PWDD   PWTD     SLAD   CHTD   CWID   RDPD   RL1D   RL2D   RL3D   RL4D   RL5D   RL6D   RL7D   RL8D   RL9D   RL10   CDAD   LDAD   SDAD   SNW0C   SNW1C
 1993 223     3     0    0.0      0   0.00      0      0      0      0      0      0    0.0  0.000      0      0  0.000  0.000  0.000  0.000   0.00   0.00   0.00      0      0      0.0   0.00   0.00   0.03   0.00   0.00   0.00   0.00   0.00   0.00   0.00   0.00   0.00   0.00      0      0      0       0       0
 1993 224     4     1    0.0      0   0.00      0      0      0      0      0      0    0.0  0.000      0      0  0.000  0.000  0.000  0.000   0.00   0.00   0.00      0      0      0.0   0.00   0.00   0.03   0.00   0.00   0.00   0.00   0.00   0.00   0.00   0.00   0.00   0.00      0      0      0       0       0
 1993 225     5     2    0.0      0   0.00      0      0      0      0      0      0    0.0  0.000      0      0  0.000  0.000  0.000  0.000   0.00   0.00   0.00      0      0      0.0   0.00   0.00   0.04   0.00   0.00   0.00   0.00   0.00   0.00   0.00   0.00   0.00   0.00      0      0      0       0       0
 1993 226     6     3    0.0      0   0.00      0      0      0      0      0      0    0.0  0.000      0      0  0.000  0.000  0.000  0.000   0.00   0.00   0.00      0      0      0.0   0.00   0.00   0.05   0.00   0.00   0.00   0.00   0.00   0.00   0.00   0.00   0.00   0.00      0      0      0       0       0
 1993 227     7     4    0.0      0   0.00      0      0      0      0      0      0    0.0  0.000      0      0  0.000  0.000  0.000  0.000   0.00   0.00   0.00      0      0      0.0   0.00   0.00   0.06   0.00   0.00   0.00   0.00   0.00   0.00   0.00   0.00   0.00   0.00      0      0      0       0       0
 1993 228     8     5    0.0      0   0.00      0      0      0      0      0      0    0.0  0.000      0      0  0.000  0.000  0.000  0.000   0.00   0.00   0.00      0      0      0.0   0.00   0.00   0.07   0.00   0.00   0.00   0.00   0.00   0.00   0.00   0.00   0.00   0.00      0      0      0       0       0
 1993 229     9     6    0.0      0   0.00      0      0      0      0      0      0    0.0  0.000      0      0  0.000  0.000  0.000  0.000   0.00   0.00   0.00      0      0      0.0   0.00   0.00   0.07   0.00   0.00   0.00   0.00   0.00   0.00   0.00   0.00   0.00   0.00      0      0      0       0       0
 1993 230    10     7    0.0      0   0.00      0      0      0      0      0      0    0.0  0.000      0      0  0.000  0.000  0.000  0.000   0.00   0.00   0.00      0      0      0.0   0.00   0.00   0.08   0.00   0.00   0.00   0.00   0.00   0.00   0.00   0.00   0.00   0.00      0      0      0       0       0
 1993 231    11     8    0.0      0   0.00      0      0      0      0      0      0    0.0  0.000      0      0  0.000  0.000  0.000  0.000   0.00   0.00   0.00      0      0      0.0   0.00   0.00   0.08   0.00   0.00   0.00   0.00   0.00   0.00   0.00   0.00   0.00   0.00      0      0      0       0       0
 1993 232    12     9    0.0      0   0.00      0      0      0      0      0      0    0.0  0.000      0      0  0.000  0.000  0.000  0.000   0.00   0.00   0.00      0      0      0.0   0.00   0.00   0.09   0.00   0.00   0.00   0.00   0.00   0.00   0.00   0.00   0.00   0.00      0      0      0       0       0
 1993 233    13    10    0.0      0   0.00      0      0      0      0      0      0    0.0  0.000      0      0  0.000  0.000  0.000  0.000   0.00   0.00   0.00      0      0      0.0   0.00   0.00   0.09   0.00   0.00   0.00   0.00   0.00   0.00   0.00   0.00   0.00   0.00      0      0      0       0       0
 1993 234    14    11    0.0      0   0.00      0      0      0      0      0      0    0.0  0.000      0      0  0.000  0.000  0.000  0.000   0.00   0.00   0.00      0      0      0.0   0.00   0.00   0.10   0.00   0.00   0.00   0.00   0.00   0.00   0.00   0.00   0.00   0.00      0      0      0       0       0
 1993 235    15    12    0.0      0   0.00      0      0      0      0      0      0    0.0  0.000      0      0  0.000  0.000  0.000  0.000   0.00   0.00   0.00      0      0      0.0   0.00   0.00   0.11   0.00   0.00   0.00   0.00   0.00   0.00   0.00   0.00   0.00   0.00      0      0      0       0       0
 1993 236    16    13    0.0      0   0.00      0      0      0      0      0      0    0.0  0.000      0      0  0.000  0.000  0.000  0.000   0.00   0.00   0.00      0      0      0.0   0.00   0.00   0.12   0.00   0.00   0.00   0.00   0.00   0.00   0.00   0.00   0.00   0.00      0      0      0       0       0
 1993 237    17    14    1.0      1   0.00     14     14      0     14     28      0    0.0  0.000      0      0  0.000  0.000  0.012  0.000   4.40   0.00   0.00      0      0     18.0   0.00   0.00   0.13   0.28   0.10   0.00   0.00   0.00   0.00   0.00   0.00   0.00   0.00      0      0      0       0       0
 1993 238    18    15    2.0      1   0.01     14     14      0     14     28      0    0.0  0.000      0      0  0.000  0.000  0.015  0.000   4.52   0.00   0.00      0      0     36.3   0.00   0.00   0.14   0.28   0.10   0.00   0.00   0.00   0.00   0.00   0.00   0.00   0.00      0      0      0       0       0
 1993 239    19    16    2.0      1   0.01     14     14      0     15     28      0    0.0  0.000      0      0  0.000  0.000  0.000  0.000   4.52   0.00   0.00      0      0     62.4   0.00   0.00   0.15   0.29   0.11   0.00   0.00   0.00   0.00   0.00   0.00   0.00   0.00      0      0      0       0       0
 1993 240    20    17    3.0      1   0.01     14     14      0     16     28      0    0.0  0.000      0      0  0.000  0.000  0.000  0.000   4.44   0.00   0.00      0      0    101.0   0.00   0.00   0.17   0.30   0.12   0.00   0.00   0.00   0.00   0.00   0.00   0.00   0.00      0      0      0       0       0
 1993 241    21    18    3.0      1   0.02     14     14      0     17     28      0    0.0  0.000      0      0  0.000  0.000  0.000  0.000   4.44   0.00   0.00      0      0    122.0   0.00   0.00   0.18   0.30   0.13   0.00   0.00   0.00   0.00   0.00   0.00   0.00   0.00      0      0      0       0       0
 1993 242    22    19    3.0      1   0.02     14     14      0     17     28      0    0.0  0.000      0      0  0.000  0.000  0.000  0.000   4.40   0.00   0.00      0      0    137.7   0.00   0.00   0.19   0.31   0.13   0.00   0.00   0.00   0.00   0.00   0.00   0.00   0.00      0      0      0       0       0
 1993 243    23    20    3.0      1   0.02     14     14      0     18     28      0    0.0  0.000      0      0  0.000  0.000  0.000  0.000   4.39   0.00   0.00      0      0    144.1   0.00   0.00   0.19   0.29   0.13   0.00   0.00   0.00   0.00   0.00   0.00   0.00   0.00      0      0      0       0       0
 1993 244    24    21    4.0      1   0.02     14     14      0     18     28      0    0.0  0.000      0      0  0.000  0.000  0.000  0.378   4.38   0.00   0.00      0      0    161.9   0.00   0.00   0.19   0.28   0.13   0.01   0.00   0.00   0.00   0.00   0.00   0.00   0.00      0      0      0       0       0
 1993 245    25    22    4.0      1   0.02     14     14      0     20     28      0    0.0  0.000      0      0  0.000  0.000  0.000  0.319   4.38   0.00   0.00      0      0    177.0   0.00   0.00   0.20   0.28   0.14   0.01   0.00   0.00   0.00   0.00   0.00   0.00   0.00      0      0      0       0       0
 1993 246    26    23    4.0      1   0.03     14     14      0     23     28      0    0.0  0.000      0      0  0.000  0.000  0.000  0.104   4.37   0.00   0.00      0      0    198.8   0.00   0.00   0.20   0.29   0.17   0.02   0.00   0.00   0.00   0.00   0.00   0.00   0.00      0      0      0       0       1
 1993 247    27    24    4.0      1   0.04     14     14      0     28     28      0    0.0  0.000      0      0  0.000  0.000  0.000  0.009   4.35   0.00   0.00      0      0    271.6   0.00   0.00   0.21   0.31   0.22   0.05   0.00   0.00   0.00   0.00   0.00   0.00   0.00      0      0      0       0       1
 1993 248    28    25    4.0      1   0.05     14     14      0     34     28      0    0.0  0.000      0      0  0.000  0.000  0.000  0.000   4.30   0.00   0.00      0      0    341.0   0.00   0.00   0.22   0.34   0.28   0.08   0.00   0.00   0.00   0.00   0.00   0.00   0.00      0      0      0       0       1
 1993 249    29    26    4.0      1   0.06     18     14      0     39     32      0    0.0  0.000      0      0  0.000  0.000  0.000  0.000   3.73   0.00   0.00      0      0    324.2   0.00   0.00   0.23   0.37   0.33   0.10   0.00   0.00   0.00   0.00   0.00   0.00   0.00      0      0      0       0       1
 1993 250    30    27    5.0      1   0.07     21     14      0     45     35      0    0.0  0.000      0      0  0.000  0.000  0.000  0.000   3.98   0.00   0.00      0      0    316.0   0.00   0.00   0.23   0.40   0.38   0.13   0.00   0.00   0.00   0.00   0.00   0.00   0.00      0      0      0       0       1
 1993 251    31    28    5.0      1   0.07     23     14      0     52     37      0    0.0  0.000      0      0  0.000  0.000  0.000  0.000   4.03   0.00   0.00      0      0    303.8   0.00   0.00   0.23   0.44   0.44   0.17   0.00   0.00   0.00   0.00   0.00   0.00   0.00      0      0      0       0       1
 1993 252    32    29    5.0      1   0.08     27     14      0     62     41      0    0.0  0.000      0      0  0.000  0.000  0.000  0.000   3.92   0.00   0.00      0      0    283.6   0.00   0.00   0.24   0.49   0.52   0.22   0.00   0.00   0.00   0.00   0.00   0.00   0.00      0      0      0       0       2
 1993 253    33    30    5.0      1   0.09     31     14      0     72     45      0    0.0  0.000      0      0  0.000  0.000  0.000  0.000   3.82   0.00   0.00      0      0    273.8   0.00   0.00   0.25   0.55   0.61   0.29   0.00   0.00   0.00   0.00   0.00   0.00   0.00      0      0      0       0       2
 1993 254    34    31    5.0      1   0.09     33     14      0     79     47      0    0.0  0.000      0      0  0.000  0.000  0.000  0.000   4.07   0.00   0.00      0      0    269.7   0.00   0.00   0.25   0.58   0.66   0.32   0.00   0.00   0.00   0.00   0.00   0.00   0.00      0      0      0       0       2
 1993 255    35    32    5.0      1   0.09     37     14      0     90     51      0    0.0  0.000      0      0  0.000  0.000  0.000  0.000   3.93   0.00   0.00      0      0    255.1   0.00   0.00   0.25   0.65   0.74   0.39   0.00   0.00   0.00   0.00   0.00   0.00   0.00      0      0      0       0       3
 1993 256    36    33    5.0      1   0.10     40     14      0     93     54      0    0.0  0.000      0      0  0.000  0.000  0.000  0.000   3.98   0.00   0.00      0      0    252.4   0.00   0.00   0.26   0.66   0.76   0.41   0.00   0.00   0.00   0.00   0.00   0.00   0.00      0      0      0       0       3
 1993 257    37    34    5.0      1   0.11     46     14      0    100     60      0    0.0  0.000      0      0  0.000  0.000  0.000  0.000   3.82   0.00   0.00      0      0    248.7   0.00   0.00   0.26   0.71   0.82   0.46   0.00   0.00   0.00   0.00   0.00   0.00   0.00      0      0      0       0       4
 1993 258    38    35    6.0      1   0.13     54     14      0    111     68      0    0.0  0.000      0      0  0.000  0.000  0.000  0.000   3.69   0.00   0.00      0      0    243.6   0.00   0.00   0.27   0.76   0.90   0.53   0.00   0.00   0.00   0.00   0.00   0.00   0.00      0      0      0       0       4
 1993 259    39    36    6.0      1   0.15     65     14      0    128     79      0    0.0  0.000      0      0  0.000  0.000  0.000  0.000   3.59   0.00   0.00      0      0    237.6   0.00   0.00   0.28   0.86   1.01   0.64   0.00   0.00   0.00   0.00   0.00   0.00   0.00      0      0      0       0       5
 1993 260    40    37    6.0      1   0.18     77     14      0    149     91      0    0.0  0.000      0      0  0.000  0.000  0.000  0.000   3.60   0.00   0.00      0      0    231.9   0.00   0.00   0.29   0.96   1.14   0.79   0.00   0.00   0.00   0.00   0.00   0.00   0.00      0      0      0       0       5
 1993 261    41    38    6.0      1   0.21     91     14      0    158    105      0    0.0  0.000      0      0  0.000  0.000  0.000  0.000   3.57   0.00   0.00      0      0    226.0   0.00   0.00   0.30   1.01   1.20   0.85   0.00   0.00   0.00   0.00   0.00   0.00   0.00      0      0      0       0       6
 1993 262    42    39    7.0      1   0.23    106     14      0    177    120      0    0.0  0.000      0      0  0.000  0.000  0.000  0.000   3.60   0.00   0.00      0      0    220.9   0.00   0.00   0.31   1.10   1.32   0.98   0.00   0.00   0.00   0.00   0.00   0.00   0.00      0      0      0       0       7
 1993 263    43    40    7.0      1   0.25    116     14      0    202    130      0    0.0  0.000      0      0  0.000  0.000  0.000  0.000   3.75   0.00   0.00      0      0    217.5   0.00   0.00   0.31   1.23   1.47   1.16   0.01   0.00   0.00   0.00   0.00   0.00   0.00      0      0      0       0       8
 1993 264    44    41    7.0      1   0.25    117     14      0    206    131      0    0.0  0.000      0      0  0.000  0.000  0.000  0.000   4.05   0.00   0.00      0      0    209.4   0.00   0.00   0.31   1.25   1.49   1.19   0.01   0.00   0.00   0.00   0.00   0.00   0.00      0      0      0       0       9
 1993 265    45    42    7.0      1   0.24    118     14      0    209    132      0    0.0  0.000      0      0  0.000  0.000  0.000  0.000   4.01   0.00   0.00      0      0    204.4   0.00   0.00   0.31   1.26   1.51   1.21   0.01   0.00   0.00   0.00   0.00   0.00   0.00      0      0      0       0       9
 1993 266    46    43    7.0      1   0.26    126     14      0    213    140      0    0.0  0.000      0      0  0.000  0.000  0.002  0.000   3.80   0.00   0.00      0      0    202.9   0.00   0.00   0.32   1.28   1.53   1.24   0.01   0.00   0.00   0.00   0.00   0.00   0.00      0      0      0       0       9
 1993 267    47    44    7.0      1   0.28    138     14      0    218    152      0    0.0  0.000      0      0  0.000  0.000  0.005  0.000   3.74   0.00   0.00      0      0    200.5   0.00   0.00   0.32   1.31   1.57   1.28   0.01   0.00   0.00   0.00   0.00   0.00   0.00      0      0      0       0      10
 1993 268    48    45    7.0      1   0.30    153     14      0    227    167      0    0.0  0.000      0      0  0.000  0.000  0.000  0.000   3.68   0.00   0.00      0      0    198.0   0.00   0.00   0.33   1.36   1.61   1.33   0.02   0.00   0.00   0.00   0.00   0.00   0.00      0      0      0       0      11
 1993 269    49    46    8.0      1   0.32    162     14      0    236    176      0    0.0  0.000      0      0  0.000  0.000  0.000  0.000   3.80   0.00   0.00      0      0    196.4   0.00   0.00   0.34   1.39   1.67   1.40   0.03   0.00   0.00   0.00   0.00   0.00   0.00      0      0      0       0      12
 1993 270    50    47    8.0      1   0.35    181     14      0    271    195      0    0.0  0.000      0      0  0.000  0.000  0.000  0.000   3.62   0.00   0.00      0      0    193.4   0.00   0.00   0.35   1.50   1.88   1.64   0.06   0.00   0.00   0.00   0.00   0.00   0.00      0      0      0       0      13
 1993 271    51    48    8.0      1   0.38    201     14      0    318    215      0    0.0  0.000      0      0  0.000  0.000  0.000  0.000   3.61   0.00   0.00      0      0    190.6   0.00   0.00   0.36   1.65   2.16   1.97   0.11   0.00   0.00   0.00   0.00   0.00   0.00      0      0      0       0      15
 1993 272    52    49    8.0      1   0.41    218     14      0    353    232      0    0.0  0.000      0      0  0.000  0.000  0.000  0.000   3.69   0.00   0.00      0      0    188.5   0.00   0.00   0.37   1.76   2.37   2.21   0.16   0.00   0.00   0.00   0.00   0.00   0.00      0      0      0       0      16
 1993 273    53    50    8.0      1   0.45    243     14      0    362    257      0    0.0  0.000      0      0  0.000  0.000  0.000  0.000   3.56   0.00   0.00      0      0    185.4   0.00   0.00   0.38   1.79   2.42   2.27   0.17   0.00   0.00   0.00   0.00   0.00   0.00      0      0      0       0      18
 1993 274    54    51    9.0      1   0.50    277     14      0    373    291      0    0.0  0.000      0      0  0.000  0.000  0.000  0.000   3.46   0.00   0.00      0      0    181.6   0.00   0.00   0.40   1.83   2.48   2.34   0.19   0.00   0.00   0.00   0.00   0.00   0.00      0      0      0       0      20
 1993 275    55    52    9.0      1   0.55    307     14      0    381    321      0    0.0  0.000      0      0  0.000  0.000  0.000  0.000   3.54   0.00   0.00      0      0    178.7   0.00   0.00   0.41   1.85   2.52   2.39   0.20   0.00   0.00   0.00   0.00   0.00   0.00      0      0      0       0      22
 1993 276    56    53    9.0      2   0.60    314     14      0    418    328      0    0.0  0.000      0      0  0.000  0.000  0.000  0.000   3.79   0.00   0.00      0      0    190.8   0.00   0.00   0.42   1.94   2.72   2.63   0.28   0.00   0.00   0.00   0.00   0.00   0.00      0      0      0       0      23
 1993 277    57    54    9.0      2   0.65    346     14      0    430    360      0    0.0  0.000      0      0  0.000  0.000  0.002  0.000   3.55   0.00   0.00      0      0    187.8   0.00   0.00   0.43   1.97   2.78   2.70   0.31   0.00   0.00   0.00   0.00   0.00   0.00      0      0      0       0      26
 1993 278    58    55   10.0      2   0.69    371     14      0    505    385      0    0.0  0.000      0      0  0.000  0.000  0.000  0.000   3.57   0.00   0.00      0      0    185.6   0.00   0.00   0.44   2.16   3.19   3.18   0.49   0.00   0.00   0.00   0.00   0.00   0.00      0      0      0       0      28
 1993 279    59    56   10.0      2   0.73    398     14      0    600    412      0    0.0  0.000      0      0  0.000  0.000  0.000  0.000   3.78   0.00   0.00      0      0    182.5   0.00   0.00   0.45   2.41   3.68   3.76   0.72   0.00   0.00   0.00   0.00   0.00   0.00      0      0      0       0      30
 1993 280    60    57   10.0      3   0.78    437     14      0    695    451      0    0.0  0.000      0      0  0.000  0.000  0.022  0.000   3.68   0.00   0.00      0      0    177.8   0.00   0.00   0.46   2.66   4.00   4.00   0.98   0.00   0.00   0.00   0.00   0.00   0.00      0      0      0       0      33
 1993 281    61    58   10.0      3   0.86    498     14      0    759    512      0    0.0  0.000      0      0  0.000  0.000  0.022  0.000   3.56   0.00   0.00      0      0    173.4   0.00   0.00   0.48   2.82   4.00   4.00   1.13   0.02   0.00   0.00   0.00   0.00   0.00      0      0      0       0      37
 1993 282    62    59   11.0      3   0.96    571     16      0    816    586      0    0.0  0.000      0      0  0.000  0.000  0.022  0.000   3.52   0.00   0.00      0      0    169.0   0.00   0.00   0.49   2.96   4.00   4.00   1.27   0.05   0.00   0.00   0.00   0.00   0.00      0      0      0       0      41
 1993 283    63    60   11.0      3   1.09    664     19      0    906    683      0    0.0  0.000      0      0  0.000  0.000  0.022  0.000   3.47   0.00   0.00      0      0    164.2   0.00   0.00   0.52   3.19   4.00   4.00   1.49   0.11   0.00   0.00   0.00   0.00   0.00      0      0      0       0      45
 1993 284    64    61   11.0      3   1.23    774     25      0    992    799      0    0.0  0.000      0      0  0.000  0.000  0.022  0.000   3.41   0.00   0.00      0      0    159.5   0.00   0.00   0.54   3.40   4.00   4.00   1.69   0.19   0.00   0.00   0.00   0.00   0.00      0      0      0       0      49
 1993 285    65    62   12.0      3   1.34    856     32      0    992    888      0    0.0  0.000      0      0  0.000  0.000  0.022  0.000   3.37   0.00   0.00      0      0    156.3   0.00   0.00   0.55   3.40   4.00   4.00   1.70   0.20   0.00   0.00   0.00   0.00   0.00      0      0      0       0      54
 1993 286    66    63   12.0      3   1.43    931     40      0    998    971      0    0.0  0.000      0      0  0.000  0.000  0.022  0.000   3.34   0.00   0.00      0      0    153.7   0.00   0.00   0.56   3.40   4.00   4.00   1.71   0.21   0.00   0.00   0.00   0.00   0.00      0      0      0       0      59
 1993 287    67    64   12.0      3   1.54   1020     52      0   1008   1072      0    0.0  0.000      0      0  0.000  0.000  0.022  0.000   3.31   0.00   0.00      0      0    150.9   0.00   0.00   0.58   3.40   4.00   4.00   1.74   0.23   0.00   0.00   0.00   0.00   0.00      0      0      0       0      64
 1993 288    68    65   13.0      3   1.65   1112     66      0   1089   1179      0    0.0  0.000      0      0  0.000  0.000  0.022  0.000   3.27   0.00   0.00      0      0    148.2   0.00   0.00   0.59   3.50   4.00   4.00   1.94   0.36   0.00   0.00   0.00   0.00   0.00      0      0      0       0      69
 1993 289    69    66   13.0      3   1.80   1238     92      0   1205   1330      0    0.0  0.000      0      0  0.000  0.000  0.022  0.000   3.23   0.00   0.00      0      0    145.1   0.00   0.00   0.61   3.63   4.00   4.00   2.22   0.57   0.00   0.00   0.00   0.00   0.00      0      0      0       0      75
 1993 290    70    67   13.0      3   1.91   1335    116      0   1213   1450      0    0.0  0.000      0      0  0.000  0.000  0.022  0.000   3.20   0.00   0.00      0      0    142.9   0.00   0.00   0.62   3.61   4.00   4.00   2.24   0.59   0.00   0.00   0.00   0.00   0.00      0      0      0       0      81
 1993 291    71    68   13.0      3   1.97   1393    131      0   1325   1525      0    0.0  0.000      0      0  0.000  0.000  0.022  0.000   3.17   0.00   0.00      0      0    141.4   0.00   0.00   0.63   3.60   4.00   4.00   2.56   0.81   0.01   0.00   0.00   0.00   0.00      0      0      0       0      87
 1993 292    72    69   14.0      3   2.06   1475    156      0   1418   1631      0    0.0  0.000      0      0  0.000  0.000  0.022  0.034   3.15   0.00   0.00      0      0    139.7   0.00   0.00   0.64   3.59   4.00   4.00   2.83   1.00   0.02   0.00   0.00   0.00   0.00      0      0      0       0      93
 1993 293    73    70   14.0      3   2.17   1580    193      0   1484   1773      0    0.0  0.000      0      0  0.000  0.000  0.022  0.091   3.11   0.00   0.00      0      0    137.7   0.00   0.00   0.66   3.58   4.00   4.00   3.02   1.14   0.03   0.00   0.00   0.00   0.00      0      0      0       0     100
 1993 294    74    71   14.0      3   2.31   1704    244      0   1547   1948      0    0.0  0.000      0      0  0.000  0.000  0.022  0.033   3.07   0.00   0.00      0      0    135.6   0.00   0.00   0.67   3.57   4.00   4.00   3.21   1.27   0.04   0.00   0.00   0.00   0.00      0      0      0       0     108
 1993 295    75    72   15.0      3   2.38   1771    275      0   1559   2046      0    0.0  0.000      0      0  0.000  0.000  0.022  0.014   3.05   0.00   0.00      0      0    134.3   0.00   0.00   0.68   3.55   4.00   4.00   3.26   1.31   0.04   0.00   0.00   0.00   0.00      0      0      0       0     115
 1993 296    76    73   15.0      3   2.43   1819    298      0   1578   2117      0    0.0  0.000      0      0  0.000  0.000  0.022  0.185   3.04   0.00   0.00      0      0    133.4   0.00   0.00   0.69   3.54   4.00   4.00   3.33   1.36   0.05   0.00   0.00   0.00   0.00      0      0      0       0     123
 1993 297    77    74   15.0      3   2.48   1874    326      0   1600   2199      0    0.0  0.000      0      0  0.000  0.000  0.022  0.119   3.02   0.00   0.00      0      0    132.4   0.00   0.00   0.70   3.50   4.00   4.00   3.39   1.42   0.05   0.00   0.00   0.00   0.00      0      0      0       0     131
 1993 298    78    75   15.0      3   2.53   1928    355      0   1665   2283      0    0.0  0.000      0      0  0.000  0.000  0.022  0.109   3.00   0.00   0.00      0      0    131.4   0.00   0.00   0.70   3.47   4.00   4.00   3.58   1.57   0.08   0.00   0.00   0.00   0.00      0      0      0       0     139
 1993 299    79    76   15.0      3   2.58   1977    383      0   1867   2361      0    0.0  0.000      0      0  0.000  0.000  0.022  0.008   2.98   0.00   0.00      0      0    130.5   0.00   0.00   0.71   3.46   4.00   4.00   4.00   2.06   0.16   0.00   0.00   0.00   0.00      0      0      0       0     147
 1993 300    80    77   15.0      3   2.65   2046    425      0   2030   2472      0    0.0  0.000      0      0  0.000  0.000  0.022  0.001   2.96   0.00   0.00      0      0    129.4   0.00   0.00   0.72   3.45   4.00   4.00   4.00   2.50   0.24   0.00   0.00   0.00   0.00      0      0      0       0     157
 1993 301    81    78   16.0      3   2.76   2156    499      0   2189   2655      0    0.0  0.000      0      0  0.000  0.000  0.022  0.001   2.93   0.00   0.00      0      0    128.0   0.00   0.00   0.73   3.45   4.00   4.00   4.00   2.96   0.34   0.00   0.00   0.00   0.00      0      0      0       0     167
 1993 302    82    79   16.0      3   2.90   2295    605      0   2197   2901      0    0.0  0.000      0      0  0.000  0.000  0.022  0.001   2.89   0.00   0.00      0      0    126.4   0.00   0.00   0.75   3.42   3.98   4.00   4.00   3.00   0.35   0.00   0.00   0.00   0.00      0      0      0       0     178
 1993 303    83    80   16.0      3   2.97   2370    668      0   2193   3038      0    0.0  0.000      0      0  0.000  0.000  0.022  0.001   2.86   0.00   0.00      0      0    125.4   0.00   0.00   0.76   3.40   3.95   3.99   4.00   3.01   0.36   0.00   0.00   0.00   0.00      0      0      0       0     189
 1993 304    84    81   17.0      3   3.04   2442    733      0   2190   3176      0    0.0  0.000      0      0  0.000  0.000  0.022  0.001   2.83   0.00   0.00      0      0    124.4   0.00   0.00   0.77   3.38   3.93   3.97   4.00   3.02   0.36   0.00   0.00   0.00   0.00      0      0      0       0     200
 1993 305    85    82   17.0      3   3.09   2500    788      0   2365   3287      0    0.0  0.000      0      0  0.000  0.000  0.022  0.120   2.78   0.00   0.00      0      0    123.7   0.00   0.00   0.78   3.32   3.84   3.89   4.00   3.74   0.61   0.00   0.00   0.00   0.00      0      0      0       0     211
 1993 306    86    83   17.0      3   3.17   2584    873      0   2541   3457      0    0.0  0.000      0      0  0.000  0.000  0.022  0.093   2.71   0.00   0.00      0      0    122.7   0.00   0.00   0.79   3.31   3.83   3.87   4.00   4.00   0.88   0.00   0.00   0.00   0.00      0      0      0       0     223
 1993 307    87    84   17.0      3   3.29   2709   1010      0   2668   3719      0    0.0  0.000      0      0  0.000  0.000  0.022  0.013   2.58   0.00   0.00      0      0    121.5   0.00   0.00   0.80   3.34   3.85   3.89   4.00   4.00   1.10   0.00   0.00   0.00   0.00      0      0      0       0     235
[...]
 1995 317    97    94   20.0      3   3.63   3475   2373      0   4238   5848      0    0.0  0.000      0      0  0.000  0.000  0.089  0.000   1.58   0.00   0.00      0      0    104.4   0.00   0.00   0.92   3.86   4.00   4.00   4.00   4.00   3.30   0.50   0.00   0.00   0.00      0      0      0       0     540
 1995 318    98    95   21.0      3   3.64   3533   2539      0   4319   6072      0    0.0  0.000      0      0  0.000  0.000  0.090  0.000   1.55   0.00   0.00      0      0    103.1   0.00   0.00   0.94   4.00   4.00   4.00   4.00   4.00   3.37   0.81   0.00   0.00   0.00      0      0      0       0     561
 1995 319    99    96   21.0      3   3.66   3588   2705      0   4379   6294      0    0.0  0.000      0      0  0.000  0.000  0.092  0.000   1.51   0.00   0.00      0      0    101.9   0.00   0.00   0.95   4.00   4.00   4.00   4.00   4.00   3.42   1.08   0.00   0.00   0.00      0      0      0       0     583
 1995 320   100    97   21.0      3   3.66   3634   2843      0   4390   6477      0    0.0  0.000      0      0  0.000  0.000  0.096  0.000   1.48   0.00   0.00      0      0    100.6   0.00   0.00   0.96   4.00   4.00   4.00   4.00   4.00   3.43   1.19   0.00   0.00   0.00      0      0      0       0     605
 1995 321   101    98   21.0      3   3.65   3675   2965      0   4472   6640      0    0.0  0.000      0      0  0.000  0.000  0.101  0.086   1.46   0.00   0.00      0      0     99.3   0.00   0.00   0.97   4.00   4.00   4.00   4.00   4.00   3.49   1.53   0.00   0.00   0.00      0      0      0       0     627
 1995 322   102    99   21.0      3   3.64   3715   3086      0   4619   6801      0    0.0  0.000      0      0  0.000  0.000  0.105  0.119   1.44   0.00   0.00      0      0     98.0   0.00   0.00   0.98   4.00   4.00   4.00   4.00   4.00   3.62   2.07   0.00   0.00   0.00      0      0      0       0     649
 1995 323   103   100   21.0      3   3.63   3755   3206      0   4776   6961      0    0.0  0.000      0      0  0.000  0.000  0.107  0.034   1.42   0.00   0.00      0      0     96.6   0.00   0.00   0.99   4.00   4.00   4.00   4.00   4.00   3.76   2.60   0.00   0.00   0.00      0      0      0       0     672
 1995 324   104   101   21.0      3   3.62   3800   3340      0   4929   7140      0    0.0  0.000      0      0  0.000  0.000  0.109  0.000   1.40   0.00   0.00      0      0     95.3   0.00   0.00   1.00   4.00   4.00   4.00   4.00   4.00   3.90   3.08   0.00   0.00   0.00      0      0      0       0     696
 1995 325   105   102   21.0      3   3.62   3853   3499      0   4981   7352      0    0.0  0.000      0      0  0.000  0.000  0.110  0.000   1.37   0.00   0.00      0      0     94.0   0.00   0.00   1.01   4.00   4.00   4.00   4.00   4.00   3.95   3.26   0.00   0.00   0.00      0      0      0       0     721
 1995 326   106   103   21.0      3   3.62   3905   3653      0   4968   7558      0    0.0  0.000      0      0  0.000  0.000  0.111  0.000   1.34   0.00   0.00      0      0     92.7   0.00   0.00   1.02   4.00   4.00   4.00   3.99   3.99   3.94   3.27   0.00   0.00   0.00      0      0      0       0     746
 1995 327   107   104   21.0      4   3.57   3865   3099      0   5011   7714      0    0.0  0.000    750      0  0.000  0.000  0.114  0.000   1.47   0.00   0.10      0    750     92.4   0.00   0.00   1.04   4.00   4.00   4.00   4.00   4.00   3.99   3.37   0.00   0.00   0.00      0      0      0       0     770
 1995 328   108   105   21.0      4   3.52   3822   3149      0   5098   7846      0    0.0  0.000    875      0  0.000  0.000  0.116  0.000   1.48   0.00   0.11      0    875     92.0   0.00   0.00   1.05   4.00   4.00   4.00   4.00   4.00   4.00   3.48   0.00   0.00   0.00      0      0      0       0     795
 1995 329   109   106   21.0      4   3.48   3777   3203      0   5183   7989      0    0.0  0.000   1009      0  0.000  0.000  0.087  0.000   1.49   0.00   0.13      0   1009     92.1   0.00   0.00   1.06   4.00   4.00   4.00   4.00   4.00   4.00   3.54   0.00   0.00   0.00      0      0      0       0     821
 1995 330   110   107   21.0      4   3.44   3729   3277      0   5276   8200      0    0.0  0.000   1194      0  0.000  0.000  0.081  0.000   1.49   0.00   0.15      0   1194     92.4   0.00   0.00   1.07   4.00   4.00   4.00   4.00   4.00   4.00   3.62   0.00   0.00   0.00      0      0      0       0     847
 1995 331   111   108   21.0      4   3.41   3680   3317      0   5443   8293      0    0.0  0.000   1296      0  0.000  0.000  0.077  0.000   1.50   0.00   0.16      0   1296     92.7   0.00   0.00   1.08   4.00   4.00   4.00   4.00   4.00   4.00   3.75   0.00   0.00   0.00      0      0      0       0     873
 1995 332   112   109   21.0      4   3.38   3629   3357      0   5623   8382      0    0.0  0.000   1396      0  0.000  0.000  0.075  0.000   1.51   0.00   0.17      0   1396     93.1   0.00   0.00   1.09   4.00   4.00   4.00   4.00   4.00   4.00   3.90   0.05   0.00   0.00      0      0      0       0     900
 1995 333   113   110   21.0      4   3.35   3576   3418      0   5775   8540      0    0.0  0.000   1547      0  0.000  0.000  0.070  0.000   1.52   0.00   0.18      0   1547     93.7   0.00   0.00   1.09   4.00   4.00   4.00   4.00   4.00   4.00   4.00   0.14   0.00   0.00      0      0      0       0     929
 1995 334   114   111   21.0      4   3.32   3519   3494      0   5880   8750      0    0.0  0.000   1737      0  0.000  0.000  0.064  0.000   1.52   0.00   0.20      0   1737     94.4   0.00   0.00   1.10   4.00   4.00   4.00   4.00   4.00   4.00   4.00   0.25   0.00   0.00      0      0      0       0     957
 1995 335   115   112   21.0      4   3.30   3460   3556      0   5860   8908      0    0.0  0.000   1892      0  0.000  0.000  0.060  0.000   1.53   0.00   0.21      0   1892     95.3   0.00   0.00   1.11   4.00   4.00   4.00   3.99   3.99   3.99   3.99   0.26   0.00   0.00      0      0      0       0     987
 1995 336   116   113   21.0      4   3.28   3398   3639      0   5896   9138      0    0.0  0.000   2100      0  0.000  0.000  0.055  0.000   1.53   0.00   0.23      0   2100     96.4   0.00   0.00   1.13   4.00   4.00   4.00   4.00   4.00   4.00   4.00   0.34   0.00   0.00      0      0      0       0    1016
 1995 337   117   114   21.0      4   3.25   3334   3719      0   5989   9352      0    0.0  0.000   2300      0  0.000  0.000  0.051  0.000   1.54   0.00   0.25      0   2300     97.6   0.00   0.00   1.14   4.00   4.00   4.00   4.00   4.00   4.00   4.00   0.50   0.00   0.00      0      0      0       0    1046
 1995 338   118   115   21.0      4   3.23   3266   3804      0   6095   9582      0    0.0  0.000   2512      0  0.000  0.000  0.047  0.000   1.54   0.00   0.26      0   2512     99.1   0.00   0.00   1.15   4.00   4.00   4.00   4.00   4.00   4.00   4.00   0.70   0.00   0.00      0      0      0       0    1076
 1995 339   119   116   21.0      4   3.22   3194   3897      0   6156   9836      0    0.0  0.000   2745      0  0.000  0.000  0.043  0.000   1.54   0.00   0.28      0   2745    100.7   0.00   0.00   1.16   4.00   4.00   4.00   4.00   4.00   4.00   4.00   0.84   0.00   0.00      0      0      0       0    1106
 1995 340   120   117   21.0      5   3.19   3194   3897    292   6191  10128   3888    7.5  0.029   3037      7  0.000  0.000  0.068  0.000   1.49   9.60   0.30      0   3037     99.9   0.00   0.00   1.17   4.00   4.00   4.00   4.00   4.00   4.00   4.00   0.93   0.00   0.00      0      0      0       0    1137
 1995 341   121   118   21.0      5   3.16   3194   3897    583   6191  10420   3888   15.0  0.056   3328      7  0.000  0.000  0.084  0.000   1.44  17.52   0.32      0   3328     98.8   0.00   0.00   1.18   4.00   4.00   4.00   4.00   4.00   4.00   4.00   0.98   0.00   0.00      0      0      0       0    1168
 1995 342   122   119   21.0      5   3.12   3194   3897    781   6245  10618   3888   20.1  0.074   3526      7  0.000  0.000  0.094  0.000   1.41  22.15   0.33      0   3526     97.7   0.00   0.00   1.19   4.00   4.00   4.00   4.00   4.00   4.00   4.00   1.09   0.00   0.00      0      0      0       0    1199
 1995 343   123   120   21.0      5   3.08   3194   3897    941   6312  10778   3888   24.2  0.087   3686      7  0.000  0.000  0.099  0.000   1.39  25.53   0.34      0   3686     96.5   0.00   0.00   1.20   4.00   4.00   4.00   4.00   4.00   4.00   4.00   1.20   0.00   0.00      0      0      0       0    1230
 1995 344   124   121   21.0      5   3.04   3194   3897   1162   6362  10998   3888   29.9  0.106   3907      7  0.000  0.000  0.101  0.000   1.35  29.73   0.36      0   3907     95.2   0.00   0.00   1.20   4.00   4.00   4.00   4.00   4.00   4.00   4.00   1.28   0.00   0.00      0      0      0       0    1261
 1995 345   125   122   21.0      5   3.00   3194   3897   1414   6377  11250   3888   36.4  0.126   4159      7  0.000  0.000  0.106  0.000   1.31  34.00   0.37      0   4159     94.0   0.00   0.00   1.21   4.00   4.00   4.00   4.00   4.00   4.00   4.00   1.32   0.00   0.00      0      0      0       0    1293
 1995 346   126   123   21.0      5   2.96   3194   3897   1594   6435  11431   3888   41.0  0.139   4339      7  0.000  0.000  0.115  0.000   1.28  36.74   0.38      0   4339     92.6   0.00   0.00   1.22   4.00   4.00   4.00   4.00   4.00   4.00   4.00   1.37   0.00   0.00      0      0      0       0    1325
 1995 347   127   124   21.0      5   2.91   3194   3897   1868   6467  11704   3888   48.0  0.160   4613      7  0.000  0.000  0.118  0.000   1.24  40.49   0.39      0   4613     91.2   0.00   0.00   1.23   4.00   4.00   4.00   4.00   4.00   4.00   4.00   1.40   0.00   0.00      0      0      0       0    1357
 1995 348   128   125   21.0      5   2.87   3194   3897   2136   6496  11972   3888   54.9  0.178   4881      7  0.000  0.000  0.128  0.000   1.20  43.76   0.41      0   4881     89.8   0.00   0.00   1.24   4.00   4.00   4.00   4.00   4.00   4.00   4.00   1.41   0.00   0.00      0      0      0       0    1390
 1995 349   129   126   21.0      5   2.82   3194   3897   2404   6517  12240   3888   61.8  0.196   5149      7  0.000  0.000  0.136  0.000   1.16  46.68   0.42      0   5149     88.3   0.00   0.00   1.25   4.00   4.00   4.00   4.00   4.00   4.00   4.00   1.43   0.00   0.00      0      0      0       0    1422
 1995 350   130   127   21.0      5   2.77   3194   3897   2695   6519  12532   3888   69.3  0.215   5440      7  0.000  0.000  0.142  0.000   1.11  49.54   0.43      0   5440     86.7   0.00   0.00   1.25   4.00   4.00   4.00   4.00   4.00   4.00   4.00   1.43   0.00   0.00      0      0      0       0    1455
 1995 351   131   128   21.0      5   2.72   3194   3897   2987   6540  12823   3888   76.8  0.233   5732      7  0.000  0.000  0.152  0.000   1.07  52.11   0.45      0   5732     85.0   0.00   0.00   1.25   4.00   4.00   4.00   4.00   4.00   4.00   4.00   1.45   0.00   0.00      0      0      0       0    1487
 1995 352   132   129   21.0      5   2.66   3194   3897   3278   6549  13115   3888   84.3  0.250   6024      7  0.000  0.000  0.160  0.000   1.02  54.43   0.46      0   6024     83.3   0.00   0.00   1.25   4.00   4.00   4.00   4.00   4.00   4.00   4.00   1.46   0.00   0.00      0      0      0       0    1520
 1995 353   133   130   21.0      5   2.61   3194   3897   3570   6567  13406   3888   91.8  0.266   6315      7  0.000  0.000  0.170  0.000   0.98  56.53   0.47      0   6315     81.6   0.00   0.00   1.25   4.00   4.00   4.00   4.00   4.00   4.00   4.00   1.47   0.00   0.00      0      0      0       0    1553
 1995 354   134   131   21.0      5   2.55   3194   3897   3862   6582  13698   3888   99.3  0.282   6607      7  0.000  0.000  0.180  0.000   0.95  58.45   0.48      0   6607     79.7   0.00   0.00   1.25   4.00   4.00   4.00   4.00   4.00   4.00   4.00   1.48   0.00   0.00      0      0      0       0    1586
 1995 355   135   132   21.0      5   2.49   3194   3897   4153   6568  13990   3888  106.8  0.297   6898      7  0.000  0.000  0.188  0.000   0.91  60.20   0.49      0   6898     77.9   0.00   0.00   1.25   4.00   4.00   4.00   4.00   4.00   4.00   3.99   1.48   0.00   0.00      0      0      0       0    1619
 1995 356   136   133   21.0      5   2.43   3194   3884   4445   6535  14269   3888  114.3  0.312   7190      7  0.000  0.000  0.199  0.000   0.88  61.82   0.50      0   7190     75.9   0.00   0.00   1.25   4.00   4.00   4.00   4.00   4.00   4.00   3.99   1.48   0.00   0.00      0      0      0       0    1651
 1995 357   137   134   21.0      5   2.36   3194   3770   4703   6502  14413   3888  121.0  0.326   7448      7  0.000  0.000  0.230  0.000   0.86  63.14   0.52      0   7448     73.9   0.00   0.00   1.25   4.00   4.00   4.00   4.00   4.00   4.00   3.99   1.48   0.00   0.00      0      0      0       0    1684
 1995 358   138   135   21.0      5   2.30   3194   3624   4976   6470  14539   3888  128.0  0.342   7721      7  0.000  0.000  0.258  0.073   0.84  64.44   0.53      0   7721     71.9   0.00   0.00   1.25   4.00   4.00   4.00   4.00   4.00   4.00   3.99   1.48   0.00   0.00      0      0      0       0    1717
 1995 359   139   136   21.0      5   2.23   3194   3492   5251   6437  14683   3888  135.1  0.358   7996      7  0.000  0.000  0.272  0.161   0.83  65.67   0.54      0   7996     69.9   0.00   0.00   1.25   4.00   4.00   4.00   4.00   4.00   4.00   3.99   1.48   0.00   0.00      0      0      0       0    1749
 1995 360   140   137   21.0      5   2.17   3194   3560   5526   6439  15025   3888  142.1  0.368   8271      7  0.000  0.000  0.283  0.071   0.79  66.81   0.55      0   8271     67.9   0.00   0.00   1.25   4.00   4.00   4.00   4.00   4.00   4.00   4.00   1.48   0.00   0.00      0      0      0       0    1781
 1995 361   141   138   21.0      5   2.11   3194   3629   5777   6442  15346   3888  148.6  0.376   8522      7  0.000  0.000  0.293  0.007   0.75  67.79   0.56      0   8522     65.9   0.00   0.00   1.25   4.00   4.00   4.00   4.00   4.00   4.00   4.00   1.49   0.00   0.00      0      0      0       0    1813
 1995 362   142   139   21.0      5   2.04   3194   3680   6041   6435  15661   3888  155.4  0.386   8786      7  0.000  0.000  0.337  0.000   0.72  68.76   0.56      0   8786     63.9   0.00   0.00   1.25   4.00   4.00   4.00   4.00   4.00   4.00   4.00   1.49   0.00   0.00      0      0      0       0    1845
 1995 363   143   140   21.0      5   1.98   3194   3706   6322   6415  15968   3888  162.6  0.396   9067      7  0.000  0.000  0.377  0.000   0.69  69.72   0.57      0   9067     61.8   0.00   0.00   1.25   4.00   4.00   4.00   4.00   4.00   3.99   3.99   1.49   0.00   0.00      0      0      0       0    1878
 1995 364   144   141   21.0      5   1.91   3194   3724   6599   6392  16263   3888  169.8  0.406   9345      7  0.000  0.000  0.418  0.000   0.67  70.62   0.57      0   9345     59.7   0.00   0.00   1.25   4.00   4.00   4.00   3.99   3.99   3.98   3.97   1.49   0.00   0.00      0      0      0       0    1910
 1995 365   145   142   21.0      5   1.84   3194   3727   6867   6362  16534   3888  176.6  0.415   9612      7  0.000  0.000  0.453  0.000   0.64  71.44   0.58      0   9612     57.6   0.00   0.00   1.25   3.98   3.98   3.98   3.97   3.97   3.96   3.96   1.48   0.00   0.00      0      0      0       0    1942
 1996 001   146   143   21.0      5   1.77   3194   3725   7140   6330  16804   3888  183.7  0.425   9885      7  0.000  0.000  0.482  0.000   0.62  72.23   0.59      0   9885     55.5   0.00   0.00   1.25   3.98   3.98   3.98   3.97   3.97   3.96   3.96   1.48   0.00   0.00      0      0      0       0    1974
 1996 002   147   144   21.0      5   1.71   3194   3687   7431   6298  17058   3888  191.2  0.436  10177      7  0.000  0.000  0.508  0.000   0.61  73.02   0.60      0  10177     53.4   0.00   0.00   1.25   3.98   3.98   3.98   3.97   3.97   3.96   3.96   1.48   0.00   0.00      0      0      0       0    2005
 1996 003   148   145   21.0      5   1.64   3194   3624   7723   6267  17286   3888  198.7  0.447  10468      7  0.000  0.000  0.535  0.000   0.59  73.78   0.61      0  10468     51.3   0.00   0.00   1.25   3.98   3.98   3.98   3.97   3.97   3.96   3.96   1.48   0.00   0.00      0      0      0       0    2037
 1996 004   149   146   21.0      5   1.57   3194   3444   8015   6236  17398   3888  206.2  0.461  10760      7  0.000  0.000  0.558  0.000   0.59  74.49   0.62      0  10760     49.3   0.00   0.00   1.25   3.98   3.98   3.98   3.97   3.97   3.96   3.96   1.48   0.00   0.00      0      0      0       0    2068
 1996 005   150   147   21.0      5   1.51   3194   3350   8306   6204  17595   3888  213.7  0.472  11051      7  0.000  0.000  0.572  0.000   0.58  75.16   0.63      0  11051     47.3   0.00   0.00   1.25   3.98   3.98   3.98   3.97   3.97   3.96   3.96   1.48   0.00   0.00      0      0      0       0    2099
 1996 006   151   148   21.0      5   1.45   3194   3318   8546   6173  17803   3888  219.8  0.480  11291      7  0.000  0.000  0.568  0.000   0.57  75.69   0.63      0  11291     45.4   0.00   0.00   1.25   3.98   3.98   3.98   3.97   3.97   3.96   3.96   1.48   0.00   0.00      0      0      0       0    2130
 1996 007   152   149   21.0      5   1.39   3194   3271   8795   6142  18005   3888  226.2  0.488  11540      7  0.000  0.000  0.570  0.000   0.56  76.21   0.64      0  11540     43.5   0.00   0.00   1.25   3.98   3.98   3.98   3.97   3.97   3.96   3.96   1.48   0.00   0.00      0      0      0       0    2161
 1996 008   153   150   21.0      5   1.33   3194   3177   9078   6112  18194   3888  233.5  0.499  11823      7  0.000  0.000  0.587  0.000   0.56  76.78   0.65      0  11823     41.7   0.00   0.00   1.25   3.98   3.98   3.98   3.97   3.97   3.96   3.96   1.48   0.00   0.00      0      0      0       0    2192
 1996 009   154   151   21.0      5   1.28   3194   3013   9369   6081  18322   3888  241.0  0.511  12115      7  0.000  0.000  0.594  0.000   0.56  77.34   0.66      0  12115     40.0   0.00   0.00   1.25   3.98   3.98   3.98   3.97   3.97   3.96   3.96   1.48   0.00   0.00      0      0      0       0    2222
 1996 010   155   152   21.0      5   1.23   3194   2895   9661   6051  18496   3888  248.5  0.522  12406      7  0.000  0.000  0.594  0.000   0.56  77.87   0.67      0  12406     38.4   0.00   0.00   1.25   3.98   3.98   3.98   3.97   3.97   3.96   3.96   1.48   0.00   0.00      0      0      0       0    2253
 1996 011   156   153   21.0      5   1.23   3194   2895   9661   6051  18496   3888  248.5  0.522  12406      7  0.000  0.000  0.594  0.000   0.56  77.87   0.67      0  12406     38.4   0.00   0.00   1.25   3.98   3.98   3.98   3.97   3.97   3.96   3.96   1.48   0.00   0.00      0      0      0       0    2253
 1996 012   157   154   21.0      5   1.23   3194   2895   9661   6051  18496   3888  248.5  0.522  12406      7  0.000  0.000  0.594  0.000   0.56  77.87   0.67      0  12406     38.4   0.00   0.00   1.25   3.98   3.98   3.98   3.97   3.97   3.96   3.96   1.48   0.00   0.00      0      0      0       0    2253
 1996 013   158   155   21.0      5   1.23   3194   2895   9661   6051  18496   3888  248.5  0.522  12406      7  0.000  0.000  0.594  0.000   0.56  77.87   0.67      0  12406     38.4   0.00   0.00   1.25   3.98   3.98   3.98   3.97   3.97   3.96   3.96   1.48   0.00   0.00      0      0      0       0    2253
 1996 014   159   156   21.0      5   1.23   3194   2895   9661   6051  18496   3888  248.5  0.522  12406      7  0.000  0.000  0.594  0.000   0.56  77.87   0.67      0  12406     38.4   0.00   0.00   1.25   3.98   3.98   3.98   3.97   3.97   3.96   3.96   1.48   0.00   0.00      0      0      0       0    2253
