*SOIL WATER DAILY OUTPUT FILE

*DSSAT Cropping System Model Ver. 4.0.2.000               Aug 03, 2016; 12:58:46

*RUN   1        : UYMZ                    
 MODEL          : MZCER040 - Maize           
 EXPERIMENT     : UYMZ0112 MZ    late to create DSS                             
 TREATMENT  1   : UYMZ                    

@YEAR DOY   DAS  SWXD   ROFC   DRNC   PREC  IR#C  IRRC  DTWT   SW1D   SW2D   SW3D   SW4D   SW5D   SW6D   SW7D   SW8D   SW9D   SW10
 1990 191     0   116      0      0      0     0     0   125  0.364  0.394  0.394  0.335  0.375  0.419  0.408  0.395  0.000  0.000
 1990 192     1   115      0      0      0     0     0   125  0.333  0.393  0.394  0.335  0.376  0.418  0.408  0.395  0.000  0.000
 1990 193     2   114      0      0      0     0     0   125  0.312  0.392  0.394  0.336  0.376  0.418  0.408  0.395  0.000  0.000
 1990 194     3   154      0      0      0     1    43   125  0.514  0.566  0.478  0.336  0.377  0.417  0.408  0.395  0.000  0.000
 1990 195     4   152      0      0      0     1    43   125  0.497  0.535  0.489  0.338  0.377  0.417  0.408  0.395  0.000  0.000
 1990 196     5   150      0      0      0     1    43   125  0.496  0.517  0.490  0.341  0.378  0.416  0.408  0.395  0.000  0.000
 1990 197     6   157      0      0      8     1    43   125  0.556  0.544  0.495  0.343  0.378  0.416  0.408  0.395  0.000  0.000
 1990 198     7   155      0      0      8     1    43   125  0.516  0.535  0.500  0.346  0.378  0.415  0.408  0.395  0.000  0.000
 1990 199     8   160      0      0     15     1    43   125  0.540  0.551  0.511  0.349  0.379  0.415  0.408  0.395  0.000  0.000
 1990 200     9   158      0      0     15     1    43   125  0.501  0.540  0.515  0.352  0.379  0.415  0.408  0.395  0.000  0.000
 1990 201    10   156      0      0     15     1    43   125  0.493  0.523  0.513  0.355  0.380  0.414  0.408  0.395  0.000  0.000
 1990 202    11   154      0      0     15     1    43   125  0.479  0.514  0.511  0.358  0.380  0.414  0.407  0.395  0.000  0.000
 1990 203    12   153      0      0     15     1    43   125  0.457  0.506  0.508  0.361  0.380  0.414  0.407  0.395  0.000  0.000
 1990 204    13   151      0      0     15     1    43   125  0.448  0.498  0.504  0.364  0.381  0.413  0.407  0.395  0.000  0.000
 1990 205    14   150      0      0     15     1    43   125  0.443  0.492  0.501  0.366  0.381  0.413  0.407  0.395  0.000  0.000
 1990 206    15   149      0      0     15     1    43   125  0.439  0.487  0.498  0.368  0.382  0.413  0.407  0.395  0.000  0.000
 1990 207    16   148      0      0     15     1    43   125  0.436  0.482  0.495  0.370  0.382  0.412  0.407  0.395  0.000  0.000
 1990 208    17   148      0      0     15     1    43   125  0.433  0.478  0.492  0.371  0.383  0.412  0.407  0.395  0.000  0.000
 1990 209    18   147      0      0     15     1    43   125  0.430  0.475  0.490  0.373  0.383  0.412  0.407  0.395  0.000  0.000
 1990 210    19   146      0      0     15     1    43   125  0.428  0.472  0.487  0.374  0.384  0.412  0.407  0.395  0.000  0.000
 1990 211    20   146      0      0     15     1    43   125  0.426  0.469  0.485  0.375  0.384  0.411  0.407  0.395  0.000  0.000
 1990 212    21   145      0      0     15     1    43   125  0.423  0.466  0.483  0.376  0.384  0.411  0.407  0.395  0.000  0.000
 1990 213    22   144      0      0     15     1    43   125  0.421  0.464  0.481  0.377  0.385  0.411  0.407  0.395  0.000  0.000
 1990 214    23   144      0      0     15     1    43   125  0.419  0.462  0.479  0.378  0.385  0.410  0.407  0.395  0.000  0.000
 1990 215    24   143      0      0     15     1    43   125  0.417  0.459  0.477  0.379  0.386  0.410  0.406  0.395  0.000  0.000
 1990 216    25   143      0      0     15     1    43   125  0.415  0.457  0.476  0.380  0.386  0.410  0.406  0.395  0.000  0.000
 1990 217    26   143      0      0     15     1    43   125  0.413  0.455  0.474  0.380  0.386  0.410  0.406  0.395  0.000  0.000
 1990 218    27   142      0      0     15     1    43   125  0.411  0.454  0.473  0.381  0.387  0.410  0.406  0.395  0.000  0.000
 1990 219    28   142      0      0     15     1    43   125  0.409  0.452  0.471  0.381  0.387  0.409  0.406  0.395  0.000  0.000
 1990 220    29   141      0      0     15     1    43   125  0.407  0.450  0.470  0.382  0.388  0.409  0.406  0.394  0.000  0.000
 1990 221    30   142      0      0     17     1    43   125  0.422  0.448  0.469  0.382  0.388  0.409  0.406  0.394  0.000  0.000
 1990 222    31   141      0      0     17     1    43   125  0.418  0.448  0.467  0.382  0.388  0.409  0.406  0.394  0.000  0.000
 1990 223    32   141      0      0     17     1    43   125  0.414  0.446  0.466  0.383  0.389  0.409  0.406  0.394  0.000  0.000
 1990 224    33   140      0      0     17     1    43   125  0.411  0.445  0.465  0.383  0.389  0.408  0.406  0.394  0.000  0.000
 1990 225    34   140      0      0     17     1    43   125  0.408  0.444  0.464  0.383  0.389  0.408  0.406  0.394  0.000  0.000
 1990 226    35   139      0      0     17     1    43   125  0.405  0.442  0.463  0.383  0.390  0.408  0.405  0.394  0.000  0.000
 1990 227    36   166      0      0     45     1    43   125  0.543  0.566  0.511  0.384  0.390  0.408  0.405  0.394  0.000  0.000
 1990 228    37   163      0      0     45     1    43   125  0.481  0.549  0.520  0.386  0.390  0.408  0.405  0.394  0.000  0.000
 1990 229    38   160      0      0     45     1    43   125  0.468  0.523  0.520  0.388  0.391  0.408  0.405  0.394  0.000  0.000
 1990 230    39   157      0      0     45     1    43   125  0.444  0.510  0.517  0.390  0.391  0.407  0.405  0.394  0.000  0.000
 1990 231    40   155      0      0     45     1    43   125  0.440  0.500  0.512  0.392  0.391  0.407  0.405  0.394  0.000  0.000
 1990 232    41   154      0      0     45     1    43   125  0.437  0.492  0.508  0.393  0.392  0.407  0.405  0.394  0.000  0.000
 1990 233    42   153      0      0     45     1    43   125  0.434  0.486  0.504  0.394  0.392  0.407  0.405  0.394  0.000  0.000
 1990 234    43   152      0      0     45     1    43   125  0.431  0.481  0.500  0.395  0.392  0.407  0.405  0.394  0.000  0.000
 1990 235    44   151      0      0     45     1    43   125  0.428  0.476  0.497  0.396  0.393  0.407  0.405  0.394  0.000  0.000
 1990 236    45   150      0      0     45     1    43   125  0.425  0.472  0.494  0.396  0.393  0.407  0.405  0.394  0.000  0.000
 1990 237    46   149      0      0     45     1    43   125  0.422  0.468  0.491  0.397  0.394  0.406  0.404  0.394  0.000  0.000
 1990 238    47   148      0      0     45     1    43   125  0.419  0.464  0.487  0.397  0.394  0.406  0.404  0.394  0.000  0.000
 1990 239    48   188      0      0     87     1    43   125  0.553  0.565  0.565  0.462  0.410  0.406  0.404  0.394  0.000  0.000
 1990 240    49   187      0      0     89     1    43   125  0.511  0.561  0.560  0.459  0.426  0.406  0.404  0.393  0.000  0.000
 1990 241    50   184      0      0     89     1    43   125  0.479  0.539  0.552  0.451  0.431  0.414  0.404  0.393  0.000  0.000
 1990 242    51   182      0      0     89     1    43   125  0.475  0.524  0.544  0.446  0.431  0.419  0.404  0.393  0.000  0.000
 1990 243    52   181      0      0     89     1    43   125  0.482  0.518  0.539  0.442  0.431  0.419  0.407  0.393  0.000  0.000
 1990 244    53   182      0      0     92     1    43   125  0.537  0.515  0.534  0.440  0.433  0.419  0.407  0.393  0.000  0.000
 1990 245    54   179      0      0     92     1    43   125  0.467  0.525  0.533  0.439  0.433  0.419  0.407  0.393  0.000  0.000
 1990 246    55   178      0      0     92     1    43   125  0.468  0.514  0.530  0.438  0.433  0.419  0.407  0.393  0.000  0.000
 1990 247    56   177      0      0     92     1    43   125  0.467  0.509  0.528  0.437  0.433  0.419  0.407  0.393  0.000  0.000
 1990 248    57   176      0      0     92     1    43   125  0.466  0.505  0.525  0.436  0.433  0.419  0.407  0.393  0.000  0.000
 1990 249    58   176      0      0     93     1    43   125  0.479  0.502  0.523  0.435  0.432  0.419  0.407  0.393  0.000  0.000
 1990 250    59   183      0      0    101     1    43   125  0.557  0.537  0.521  0.434  0.432  0.419  0.407  0.393  0.000  0.000
 1990 251    60   199      0      0    119     1    43   125  0.540  0.566  0.571  0.464  0.442  0.421  0.409  0.393  0.000  0.000
 1990 252    61   190      0      5    119     1    43   125  0.457  0.555  0.559  0.454  0.438  0.421  0.409  0.395  0.000  0.000
 1990 253    62   185      0      8    119     1    43   125  0.460  0.527  0.549  0.448  0.435  0.421  0.409  0.395  0.000  0.000
 1990 254    63   206      0      8    143     1    43   125  0.545  0.564  0.563  0.470  0.460  0.429  0.416  0.398  0.000  0.000
 1990 255    64   195      0     16    143     1    43   125  0.486  0.553  0.554  0.457  0.449  0.425  0.413  0.397  0.000  0.000
 1990 256    65   188      0     20    143     1    43   125  0.480  0.529  0.546  0.449  0.442  0.423  0.411  0.397  0.000  0.000
 1990 257    66   183      0     22    143     1    43   125  0.455  0.519  0.539  0.445  0.437  0.421  0.411  0.397  0.000  0.000
 1990 258    67   180      0     23    143     1    43   125  0.455  0.510  0.533  0.441  0.435  0.421  0.411  0.397  0.000  0.000
 1990 259    68   178      0     24    143     1    43   125  0.455  0.504  0.528  0.439  0.433  0.421  0.411  0.397  0.000  0.000
 1990 260    69   177      0     24    143     1    43   125  0.454  0.500  0.524  0.438  0.433  0.421  0.411  0.397  0.000  0.000
 1990 261    70   206      0     24    175     1    43   125  0.550  0.564  0.564  0.468  0.460  0.429  0.416  0.400  0.000  0.000
 1990 262    71   195      0     32    175     1    43   125  0.498  0.554  0.554  0.456  0.449  0.425  0.413  0.398  0.000  0.000
 1990 263    72   190      0     36    175     1    43   125  0.509  0.533  0.547  0.449  0.442  0.422  0.411  0.398  0.000  0.000
 1990 264    73   186      0     38    175     1    43   125  0.505  0.528  0.541  0.444  0.437  0.421  0.411  0.398  0.000  0.000
 1990 265    74   181      0     39    175     1    43   125  0.454  0.522  0.535  0.441  0.435  0.421  0.411  0.398  0.000  0.000
 1990 266    75   179      0     39    175     1    43   125  0.454  0.510  0.528  0.440  0.433  0.421  0.411  0.398  0.000  0.000
 1990 267    76   177      0     39    175     1    43   125  0.452  0.501  0.522  0.438  0.433  0.421  0.411  0.398  0.000  0.000
 1990 268    77   175      0     39    175     1    43   125  0.449  0.494  0.516  0.435  0.433  0.421  0.411  0.398  0.000  0.000
 1990 269    78   173      0     39    175     1    43   125  0.446  0.488  0.511  0.433  0.433  0.421  0.411  0.398  0.000  0.000
 1990 270    79   171      0     39    175     1    43   125  0.442  0.483  0.505  0.430  0.432  0.421  0.411  0.398  0.000  0.000
 1990 271    80   169      0     39    175     1    43   125  0.439  0.480  0.503  0.429  0.432  0.421  0.411  0.398  0.000  0.000
 1990 272    81   167      0     39    175     1    43   125  0.435  0.475  0.497  0.426  0.431  0.421  0.411  0.398  0.000  0.000
 1990 273    82   165      0     39    175     1    43   125  0.431  0.469  0.491  0.424  0.431  0.421  0.411  0.398  0.000  0.000
 1990 274    83   163      0     39    175     1    43   125  0.427  0.463  0.484  0.420  0.430  0.421  0.411  0.398  0.000  0.000
 1990 275    84   160      0     39    175     1    43   125  0.422  0.456  0.476  0.417  0.428  0.421  0.411  0.398  0.000  0.000
 1990 276    85   157      0     39    175     1    43   125  0.416  0.449  0.468  0.413  0.427  0.421  0.411  0.398  0.000  0.000
 1990 277    86   154      0     39    175     1    43   125  0.411  0.443  0.461  0.410  0.425  0.421  0.411  0.398  0.000  0.000
 1990 278    87   153      0     39    175     1    43   125  0.406  0.440  0.459  0.408  0.424  0.421  0.411  0.398  0.000  0.000
 1990 279    88   175      0     39    199     1    43   125  0.555  0.564  0.476  0.406  0.423  0.421  0.411  0.398  0.000  0.000
 1990 280    89   178      0     39    204     1    43   125  0.555  0.556  0.506  0.405  0.422  0.421  0.411  0.398  0.000  0.000
 1990 281    90   213      1     40    243     1    43   125  0.549  0.557  0.567  0.469  0.459  0.444  0.427  0.405  0.000  0.000
 1990 282    91   198      1     51    243     1    43   125  0.511  0.547  0.547  0.452  0.446  0.434  0.419  0.401  0.000  0.000
 1990 283    92   188      1     56    243     1    43   125  0.505  0.529  0.535  0.442  0.438  0.428  0.415  0.398  0.000  0.000
 1990 284    93   184      1     59    243     1    43   125  0.509  0.522  0.530  0.437  0.434  0.424  0.412  0.397  0.000  0.000
 1990 285    94   215      1     61    281     1    43   125  0.544  0.559  0.558  0.463  0.457  0.447  0.439  0.411  0.000  0.000
 1990 286    95   198      1     72    281     1    43   125  0.513  0.545  0.542  0.446  0.445  0.436  0.427  0.405  0.000  0.000
 1990 287    96   188      1     77    281     1    43   125  0.507  0.528  0.532  0.436  0.435  0.429  0.419  0.401  0.000  0.000
 1990 288    97   180      1     80    281     1    43   125  0.494  0.518  0.523  0.428  0.428  0.424  0.415  0.398  0.000  0.000
 1990 289    98   174      1     81    281     1    43   125  0.487  0.509  0.515  0.421  0.422  0.421  0.412  0.397  0.000  0.000
 1990 290    99   171      1     82    281     1    43   125  0.482  0.503  0.510  0.418  0.418  0.420  0.410  0.397  0.000  0.000
 1990 291   100   165      1     82    281     1    43   125  0.465  0.495  0.503  0.411  0.411  0.418  0.410  0.397  0.000  0.000
 1990 292   101   170      1     82    289     1    43   125  0.562  0.517  0.497  0.406  0.407  0.417  0.410  0.397  0.000  0.000
 1990 293   102   171      1     82    294     1    43   125  0.534  0.556  0.501  0.402  0.402  0.415  0.410  0.397  0.000  0.000
 1990 294   103   166      1     82    294     1    43   125  0.523  0.535  0.503  0.397  0.397  0.413  0.410  0.397  0.000  0.000
 1990 295   104   161      1     82    294     1    43   125  0.511  0.520  0.498  0.391  0.390  0.409  0.410  0.397  0.000  0.000
 1990 296   105   156      1     82    294     1    43   125  0.501  0.510  0.494  0.386  0.386  0.406  0.410  0.397  0.000  0.000
 1990 297   106   152      1     82    294     1    43   125  0.491  0.501  0.488  0.383  0.383  0.402  0.410  0.397  0.000  0.000
 1990 298   107   149      1     82    294     1    43   125  0.486  0.494  0.484  0.381  0.381  0.400  0.410  0.397  0.000  0.000
 1990 299   108   143      1     82    294     1    43   125  0.472  0.485  0.476  0.377  0.377  0.394  0.409  0.397  0.000  0.000
 1990 300   109   139      1     82    294     1    43   125  0.464  0.477  0.469  0.374  0.374  0.390  0.409  0.397  0.000  0.000
 1990 301   110   137      1     82    294     1    43   125  0.462  0.471  0.465  0.373  0.373  0.388  0.409  0.397  0.000  0.000
 1990 302   111   139      1     82    300     1    43   125  0.555  0.472  0.460  0.372  0.372  0.386  0.408  0.397  0.000  0.000
 1990 303   112   154      1     82    321     1    43   125  0.521  0.571  0.522  0.368  0.368  0.382  0.408  0.397  0.000  0.000
 1990 304   113   149      1     82    321     1    43   125  0.524  0.536  0.518  0.367  0.365  0.378  0.407  0.397  0.000  0.000
 1990 305   114   146      1     82    323     1    43   125  0.550  0.523  0.507  0.367  0.363  0.375  0.407  0.397  0.000  0.000
 1990 306   115   141      1     82    323     1    43   125  0.518  0.519  0.499  0.366  0.361  0.373  0.406  0.397  0.000  0.000
 1990 307   116   139      1     82    323     1    43   125  0.510  0.510  0.494  0.367  0.360  0.372  0.405  0.397  0.000  0.000
 1990 308   117   167      1     82    356     1    43   125  0.555  0.557  0.559  0.447  0.366  0.370  0.403  0.397  0.000  0.000
 1990 309   118   162      1     82    356     1    43   125  0.535  0.543  0.544  0.433  0.382  0.368  0.401  0.397  0.000  0.000
 1990 310   119   159      1     82    356     1    43   125  0.532  0.535  0.538  0.428  0.381  0.367  0.398  0.397  0.000  0.000
 1990 311   120   156      1     82    358     1    43   125  0.549  0.535  0.531  0.421  0.379  0.366  0.394  0.396  0.000  0.000
 1990 312   121   154      1     82    358     1    43   125  0.535  0.535  0.529  0.418  0.379  0.366  0.393  0.396  0.000  0.000
 1990 313   122   151      1     82    358     1    43   125  0.526  0.529  0.525  0.414  0.378  0.365  0.389  0.396  0.000  0.000
 1990 314   123   147      1     82    358     1    43   125  0.525  0.521  0.518  0.408  0.376  0.365  0.385  0.395  0.000  0.000
 1990 315   124   142      1     82    358     1    43   125  0.508  0.515  0.511  0.402  0.374  0.363  0.380  0.395  0.000  0.000
 1990 316   125   139      1     82    358     1    43   125  0.504  0.509  0.507  0.399  0.373  0.363  0.378  0.394  0.000  0.000
 1990 317   126   132      1     82    358     1    43   125  0.488  0.499  0.497  0.390  0.370  0.361  0.372  0.394  0.000  0.000
 1990 318   127   130      1     82    360     1    43   125  0.521  0.491  0.491  0.385  0.369  0.360  0.370  0.393  0.000  0.000
 1990 319   128   129      1     82    360     1    43   125  0.501  0.494  0.487  0.384  0.368  0.360  0.369  0.392  0.000  0.000
 1990 320   129   178      1     82    413     1    43   125  0.553  0.563  0.562  0.466  0.459  0.371  0.367  0.392  0.000  0.000
 1990 321   130   172      1     82    413     1    43   125  0.532  0.547  0.547  0.448  0.440  0.388  0.365  0.391  0.000  0.000
 1990 322   131   166      1     82    413     1    43   125  0.524  0.533  0.538  0.437  0.429  0.389  0.363  0.390  0.000  0.000
 1990 323   132   159      1     82    413     1    43   125  0.513  0.525  0.530  0.430  0.421  0.384  0.361  0.389  0.000  0.000
 1990 324   133   156      1     82    413     1    43   125  0.513  0.520  0.526  0.426  0.418  0.383  0.361  0.388  0.000  0.000
 1990 325   134   150      1     82    415     1    43   125  0.527  0.511  0.517  0.418  0.410  0.379  0.359  0.387  0.000  0.000
 1990 326   135   144      1     82    415     1    43   125  0.499  0.509  0.509  0.411  0.402  0.376  0.358  0.385  0.000  0.000
 1990 327   136   138      1     82    415     1    43   125  0.484  0.499  0.501  0.404  0.395  0.373  0.357  0.383  0.000  0.000
 1990 328   137   132      1     82    415     1    43   125  0.473  0.490  0.494  0.397  0.388  0.371  0.356  0.382  0.000  0.000
 1990 329   138   127      1     82    415     1    43   125  0.465  0.482  0.487  0.391  0.384  0.369  0.355  0.380  0.000  0.000
 1990 330   139   143      1     82    435     1    43   125  0.557  0.559  0.526  0.385  0.380  0.367  0.354  0.378  0.000  0.000
 1990 331   140   137      1     82    435     1    43   125  0.532  0.540  0.524  0.382  0.376  0.365  0.353  0.376  0.000  0.000
 1990 332   141   130      1     82    435     1    43   125  0.518  0.524  0.514  0.379  0.372  0.363  0.351  0.373  0.000  0.000
 1990 333   142   124      1     82    435     1    43   125  0.499  0.510  0.502  0.375  0.369  0.361  0.350  0.369  0.000  0.000
 1990 334   143   120      1     82    435     1    43   125  0.493  0.501  0.495  0.374  0.367  0.360  0.349  0.367  0.000  0.000
 1990 335   144   115      1     82    435     1    43   125  0.478  0.490  0.486  0.372  0.365  0.358  0.348  0.364  0.000  0.000
 1990 336   145   113      1     82    435     1    43   125  0.475  0.484  0.481  0.371  0.364  0.358  0.348  0.363  0.000  0.000
 1990 337   146   117      1     82    445     1    43   125  0.548  0.525  0.470  0.368  0.362  0.356  0.346  0.360  0.000  0.000
 1990 338   147   111      1     82    445     1    43   125  0.509  0.514  0.463  0.365  0.359  0.354  0.345  0.358  0.000  0.000
 1990 339   148   107      1     82    445     1    43   125  0.496  0.499  0.458  0.363  0.358  0.353  0.344  0.356  0.000  0.000
 1990 340   149   145      1     82    487     1    43   125  0.555  0.556  0.562  0.452  0.367  0.352  0.343  0.354  0.000  0.000
 1990 341   150   200      3     82    550     1    43   125  0.547  0.559  0.559  0.459  0.460  0.446  0.410  0.355  0.000  0.000
 1990 342   151   192      3     83    550     1    43   125  0.527  0.547  0.547  0.445  0.443  0.430  0.404  0.395  0.000  0.000
 1990 343   152   188      3     85    550     1    43   125  0.535  0.537  0.543  0.441  0.437  0.424  0.407  0.394  0.000  0.000
 1990 344   153   222      6    117    620     1    43   125  0.564  0.567  0.565  0.468  0.459  0.446  0.438  0.431  0.000  0.000
 1990 345   154   202      6    131    620     1    43   125  0.537  0.554  0.553  0.453  0.445  0.432  0.419  0.413  0.000  0.000
 1990 346   155   193      6    138    620     1    43   125  0.532  0.545  0.547  0.445  0.437  0.425  0.411  0.405  0.000  0.000
 1990 347   156   186      6    141    620     1    43   125  0.529  0.538  0.542  0.439  0.432  0.420  0.407  0.399  0.000  0.000
 1990 348   157   180      6    141    620     1    43   125  0.518  0.532  0.536  0.434  0.427  0.415  0.402  0.395  0.000  0.000
 1990 349   158   173      6    141    620     1    43   125  0.507  0.524  0.530  0.429  0.422  0.410  0.397  0.393  0.000  0.000
 1990 350   159   167      6    141    620     1    43   125  0.497  0.516  0.523  0.424  0.417  0.405  0.392  0.391  0.000  0.000
 1990 351   160   163      6    141    620     1    43   125  0.496  0.511  0.519  0.421  0.414  0.402  0.390  0.389  0.000  0.000
 1990 352   161   193      6    141    656     1    43   125  0.555  0.562  0.562  0.465  0.456  0.415  0.386  0.387  0.000  0.000
 1990 353   162   186      6    141    656     1    43   125  0.526  0.549  0.549  0.449  0.441  0.414  0.404  0.385  0.000  0.000
 1990 354   163   179      6    141    656     1    43   125  0.516  0.534  0.541  0.440  0.431  0.414  0.400  0.383  0.000  0.000
 1990 355   164   173      6    141    656     1    43   125  0.508  0.526  0.535  0.435  0.427  0.409  0.396  0.381  0.000  0.000
 1990 356   165   199      6    141    684     1    43   125  0.571  0.564  0.564  0.468  0.459  0.423  0.400  0.380  0.000  0.000
 1990 357   166   192      6    144    684     1    43   125  0.542  0.552  0.552  0.453  0.444  0.418  0.405  0.394  0.000  0.000
 1990 358   167   204      6    144    699     1    43   125  0.557  0.566  0.566  0.468  0.458  0.425  0.409  0.395  0.000  0.000
 1990 359   168   190      6    150    699     1    43   125  0.525  0.554  0.554  0.453  0.444  0.417  0.402  0.392  0.000  0.000
 1990 360   169   182      6    151    699     1    43   125  0.508  0.538  0.545  0.442  0.435  0.413  0.402  0.392  0.000  0.000
 1990 361   170   175      6    151    699     1    43   125  0.498  0.525  0.537  0.435  0.428  0.410  0.396  0.389  0.000  0.000
 1990 362   171   168      6    151    699     1    43   125  0.486  0.517  0.529  0.430  0.423  0.405  0.392  0.387  0.000  0.000
 1990 363   172   163      6    151    699     1    43   125  0.479  0.509  0.523  0.426  0.419  0.401  0.388  0.385  0.000  0.000
 1990 364   173   156      6    151    699     1    43   125  0.460  0.501  0.516  0.421  0.414  0.396  0.384  0.382  0.000  0.000
 1990 365   174   149      6    151    699     1    43   125  0.438  0.492  0.509  0.416  0.409  0.392  0.379  0.380  0.000  0.000
 1991 001   175   143      6    151    699     1    43   125  0.423  0.483  0.502  0.411  0.405  0.388  0.377  0.378  0.000  0.000
 1991 002   176   137      6    151    699     1    43   125  0.412  0.474  0.496  0.406  0.400  0.385  0.374  0.375  0.000  0.000
 1991 003   177   132      6    151    699     1    43   125  0.404  0.466  0.489  0.401  0.395  0.382  0.371  0.372  0.000  0.000
 1991 004   178   125      6    151    699     1    43   125  0.397  0.457  0.481  0.395  0.389  0.379  0.369  0.369  0.000  0.000
 1991 005   179   119      6    151    699     1    43   125  0.390  0.448  0.473  0.388  0.384  0.376  0.366  0.367  0.000  0.000
 1991 006   180   114      6    151    699     1    43   125  0.383  0.439  0.464  0.382  0.380  0.374  0.363  0.364  0.000  0.000
 1991 007   181   108      6    151    699     1    43   125  0.376  0.430  0.455  0.377  0.376  0.371  0.361  0.362  0.000  0.000
 1991 008   182   130      6    151    699     2    73   125  0.525  0.560  0.489  0.373  0.372  0.368  0.358  0.359  0.000  0.000
 1991 009   183   128      6    151    699     2    73   125  0.523  0.534  0.495  0.373  0.371  0.367  0.358  0.358  0.000  0.000
 1991 010   184   127      6    151    705     2    73   125  0.525  0.541  0.497  0.371  0.369  0.365  0.356  0.356  0.000  0.000

*DSSAT Cropping System Model Ver. 4.0.2.000               Aug 03, 2016; 12:58:46

*RUN   2        : UYMZ                    
 MODEL          : MZCER040 - Maize           
 EXPERIMENT     : UYMZ0112 MZ    late to create DSS                             
 TREATMENT  1   : UYMZ                    

@YEAR DOY   DAS  SWXD   ROFC   DRNC   PREC  IR#C  IRRC  DTWT   SW1D   SW2D   SW3D   SW4D   SW5D   SW6D   SW7D   SW8D   SW9D   SW10
 1991 191     0   131      0      0     14     0     0   125  0.540  0.447  0.394  0.335  0.375  0.419  0.408  0.395  0.000  0.000
 1991 192     1   129      0      0     14     0     0   125  0.485  0.459  0.396  0.335  0.376  0.418  0.408  0.395  0.000  0.000
 1991 193     2   128      0      0     14     0     0   125  0.456  0.460  0.397  0.336  0.376  0.418  0.408  0.395  0.000  0.000
 1991 194     3   158      0      0     14     1    31   125  0.530  0.565  0.499  0.336  0.377  0.417  0.408  0.395  0.000  0.000
 1991 195     4   156      0      0     14     1    31   125  0.502  0.542  0.508  0.339  0.377  0.417  0.408  0.395  0.000  0.000
 1991 196     5   153      0      0     14     1    31   125  0.490  0.523  0.507  0.342  0.378  0.416  0.408  0.395  0.000  0.000
 1991 197     6   152      0      0     14     1    31   125  0.477  0.513  0.506  0.345  0.378  0.416  0.408  0.395  0.000  0.000
 1991 198     7   150      0      0     14     1    31   125  0.455  0.504  0.503  0.348  0.378  0.415  0.408  0.395  0.000  0.000
 1991 199     8   207      0      0     72     1    31   125  0.569  0.560  0.565  0.472  0.461  0.428  0.414  0.398  0.000  0.000
 1991 200     9   212      0      1     80     1    31   125  0.526  0.568  0.568  0.470  0.460  0.439  0.425  0.404  0.000  0.000
 1991 201    10   211      0      3     83     1    31   125  0.537  0.556  0.563  0.465  0.460  0.437  0.430  0.410  0.000  0.000
 1991 202    11   228     14     57    169     1    31    18  0.569  0.568  0.577  0.491  0.460  0.447  0.439  0.432  0.000  0.000
 1991 203    12   223     16    104    213     1    31   125  0.553  0.568  0.568  0.470  0.460  0.447  0.439  0.432  0.000  0.000
 1991 204    13   222     16    129    239     1    31   125  0.538  0.568  0.568  0.470  0.460  0.447  0.439  0.432  0.000  0.000
 1991 205    14   205     16    143    239     1    31   125  0.487  0.555  0.557  0.457  0.449  0.436  0.427  0.417  0.000  0.000
 1991 206    15   194     16    152    239     1    31   125  0.478  0.532  0.550  0.449  0.442  0.429  0.419  0.408  0.000  0.000
 1991 207    16   186     16    157    239     1    31   125  0.452  0.522  0.543  0.445  0.437  0.425  0.415  0.403  0.000  0.000
 1991 208    17   182     16    159    239     1    31   125  0.456  0.514  0.538  0.442  0.435  0.423  0.412  0.400  0.000  0.000
 1991 209    18   180     16    161    239     1    31   125  0.459  0.509  0.533  0.440  0.433  0.421  0.410  0.398  0.000  0.000
 1991 210    19   179     16    161    239     1    31   125  0.461  0.506  0.530  0.439  0.433  0.421  0.410  0.398  0.000  0.000
 1991 211    20   178     16    161    239     1    31   125  0.462  0.503  0.527  0.438  0.433  0.421  0.410  0.398  0.000  0.000
 1991 212    21   201     16    161    265     1    31   125  0.539  0.566  0.565  0.469  0.445  0.423  0.412  0.399  0.000  0.000
 1991 213    22   193     16    167    265     1    31   125  0.492  0.554  0.556  0.456  0.440  0.422  0.411  0.397  0.000  0.000
 1991 214    23   188     16    170    265     1    31   125  0.491  0.533  0.549  0.449  0.436  0.422  0.411  0.397  0.000  0.000
 1991 215    24   210     16    171    290     1    31   125  0.536  0.564  0.565  0.470  0.460  0.437  0.421  0.402  0.000  0.000
 1991 216    25   223     16    184    317     1    31   125  0.558  0.565  0.568  0.470  0.460  0.447  0.439  0.432  0.000  0.000
 1991 217    26   205     16    199    317     1    31   125  0.494  0.556  0.557  0.457  0.449  0.436  0.427  0.417  0.000  0.000
 1991 218    27   196     16    207    317     1    31   125  0.514  0.534  0.551  0.449  0.442  0.429  0.419  0.408  0.000  0.000
 1991 219    28   190     16    212    317     1    31   125  0.500  0.530  0.544  0.445  0.437  0.425  0.415  0.403  0.000  0.000
 1991 220    29   186     16    214    317     1    31   125  0.492  0.526  0.541  0.442  0.435  0.423  0.412  0.400  0.000  0.000
 1991 221    30   183     16    216    317     1    31   125  0.491  0.522  0.537  0.440  0.433  0.421  0.410  0.398  0.000  0.000
 1991 222    31   182     16    216    317     1    31   125  0.490  0.518  0.534  0.439  0.433  0.421  0.410  0.398  0.000  0.000
 1991 223    32   181     16    216    317     1    31   125  0.475  0.516  0.531  0.439  0.433  0.421  0.410  0.398  0.000  0.000
 1991 224    33   180     16    216    317     1    31   125  0.472  0.511  0.529  0.438  0.433  0.421  0.410  0.398  0.000  0.000
 1991 225    34   179     16    216    317     1    31   125  0.470  0.507  0.527  0.437  0.433  0.421  0.410  0.398  0.000  0.000
 1991 226    35   178     16    216    317     1    31   125  0.469  0.504  0.524  0.436  0.433  0.421  0.410  0.398  0.000  0.000
 1991 227    36   177     16    216    317     1    31   125  0.469  0.502  0.522  0.435  0.433  0.421  0.410  0.398  0.000  0.000
 1991 228    37   176     16    216    317     1    31   125  0.467  0.500  0.520  0.434  0.433  0.421  0.410  0.398  0.000  0.000
 1991 229    38   176     16    216    317     1    31   125  0.466  0.497  0.518  0.433  0.432  0.421  0.410  0.398  0.000  0.000
 1991 230    39   175     16    216    317     1    31   125  0.465  0.496  0.517  0.432  0.432  0.421  0.410  0.398  0.000  0.000
 1991 231    40   174     16    216    317     1    31   125  0.464  0.493  0.515  0.431  0.432  0.421  0.410  0.398  0.000  0.000
 1991 232    41   173     16    216    317     1    31   125  0.463  0.492  0.513  0.430  0.431  0.421  0.410  0.398  0.000  0.000
 1991 233    42   173     16    216    317     1    31   125  0.461  0.489  0.511  0.430  0.431  0.421  0.410  0.398  0.000  0.000
 1991 234    43   172     16    216    317     1    31   125  0.459  0.487  0.509  0.429  0.431  0.421  0.410  0.398  0.000  0.000
 1991 235    44   171     16    216    317     1    31   125  0.457  0.485  0.506  0.428  0.430  0.421  0.410  0.398  0.000  0.000
 1991 236    45   170     16    216    317     1    31   125  0.455  0.483  0.503  0.427  0.430  0.421  0.410  0.398  0.000  0.000
 1991 237    46   169     16    216    317     1    31   125  0.453  0.480  0.501  0.426  0.429  0.421  0.410  0.398  0.000  0.000
 1991 238    47   169     16    216    317     1    31   125  0.452  0.479  0.499  0.426  0.429  0.421  0.410  0.398  0.000  0.000
 1991 239    48   169     16    216    319     1    31   125  0.481  0.478  0.498  0.425  0.429  0.421  0.410  0.398  0.000  0.000
 1991 240    49   169     16    216    319     1    31   125  0.470  0.479  0.496  0.424  0.428  0.421  0.410  0.398  0.000  0.000
 1991 241    50   168     16    216    319     1    31   125  0.463  0.479  0.494  0.423  0.428  0.421  0.410  0.398  0.000  0.000
 1991 242    51   167     16    216    319     1    31   125  0.458  0.477  0.492  0.422  0.427  0.421  0.410  0.398  0.000  0.000
 1991 243    52   168     16    216    321     1    31   125  0.486  0.476  0.491  0.422  0.427  0.421  0.410  0.398  0.000  0.000
 1991 244    53   181     16    216    336     1    31   125  0.536  0.570  0.501  0.421  0.426  0.421  0.410  0.398  0.000  0.000
 1991 245    54   180     16    216    337     1    31   125  0.533  0.547  0.513  0.421  0.426  0.421  0.410  0.398  0.000  0.000
 1991 246    55   178     16    216    337     1    31   125  0.505  0.533  0.516  0.421  0.426  0.421  0.410  0.398  0.000  0.000
 1991 247    56   174     16    216    337     1    31   125  0.482  0.519  0.511  0.421  0.425  0.421  0.410  0.398  0.000  0.000
 1991 248    57   172     16    216    337     1    31   125  0.473  0.506  0.506  0.420  0.425  0.421  0.410  0.398  0.000  0.000
 1991 249    58   170     16    216    337     1    31   125  0.470  0.499  0.504  0.420  0.425  0.421  0.410  0.398  0.000  0.000
 1991 250    59   177     16    216    344     1    31   125  0.564  0.521  0.502  0.419  0.424  0.420  0.410  0.398  0.000  0.000
 1991 251    60   176     16    216    344     1    31   125  0.523  0.527  0.504  0.419  0.424  0.420  0.410  0.398  0.000  0.000
 1991 252    61   172     16    216    344     1    31   125  0.487  0.519  0.502  0.417  0.424  0.420  0.410  0.398  0.000  0.000
 1991 253    62   169     16    216    344     1    31   125  0.461  0.505  0.497  0.415  0.423  0.420  0.410  0.398  0.000  0.000
 1991 254    63   165     16    216    344     1    31   125  0.451  0.493  0.491  0.413  0.423  0.420  0.410  0.398  0.000  0.000
 1991 255    64   162     16    216    344     1    31   125  0.441  0.482  0.484  0.409  0.422  0.420  0.410  0.398  0.000  0.000
 1991 256    65   159     16    216    344     1    31   125  0.433  0.473  0.478  0.406  0.421  0.420  0.410  0.398  0.000  0.000
 1991 257    66   158     16    216    344     1    31   125  0.431  0.468  0.476  0.405  0.420  0.420  0.410  0.398  0.000  0.000
 1991 258    67   174     16    216    361     1    31   125  0.566  0.554  0.481  0.404  0.419  0.420  0.410  0.398  0.000  0.000
 1991 259    68   174     16    216    364     1    31   125  0.545  0.553  0.494  0.401  0.418  0.419  0.410  0.398  0.000  0.000
 1991 260    69   186     16    216    377     1    31   125  0.556  0.558  0.558  0.409  0.417  0.419  0.410  0.398  0.000  0.000
 1991 261    70   220     18    234    435     1    31   125  0.537  0.565  0.558  0.468  0.459  0.447  0.439  0.432  0.000  0.000
 1991 262    71   202     18    247    435     1    31   125  0.510  0.552  0.544  0.450  0.445  0.436  0.427  0.417  0.000  0.000
 1991 263    72   193     18    254    435     1    31   125  0.516  0.534  0.539  0.442  0.437  0.429  0.419  0.408  0.000  0.000
 1991 264    73   187     18    258    435     1    31   125  0.513  0.528  0.534  0.437  0.432  0.425  0.415  0.403  0.000  0.000
 1991 265    74   181     18    260    435     1    31   125  0.497  0.522  0.527  0.431  0.427  0.423  0.412  0.400  0.000  0.000
 1991 266    75   176     18    261    435     1    31   125  0.496  0.514  0.520  0.426  0.422  0.421  0.410  0.398  0.000  0.000
 1991 267    76   172     18    261    435     1    31   125  0.477  0.508  0.514  0.421  0.416  0.421  0.410  0.398  0.000  0.000
 1991 268    77   168     18    261    435     1    31   125  0.464  0.499  0.507  0.416  0.411  0.420  0.410  0.398  0.000  0.000
 1991 269    78   164     18    261    435     1    31   125  0.449  0.491  0.501  0.411  0.406  0.419  0.410  0.398  0.000  0.000
 1991 270    79   160     18    261    435     1    31   125  0.437  0.483  0.495  0.407  0.402  0.417  0.410  0.398  0.000  0.000
 1991 271    80   155     18    261    435     1    31   125  0.427  0.475  0.489  0.402  0.398  0.415  0.410  0.398  0.000  0.000
 1991 272    81   152     18    261    435     1    31   125  0.419  0.468  0.483  0.398  0.394  0.413  0.410  0.398  0.000  0.000
 1991 273    82   148     18    261    435     1    31   125  0.412  0.461  0.478  0.394  0.391  0.410  0.410  0.398  0.000  0.000
 1991 274    83   144     18    261    435     1    31   125  0.406  0.454  0.473  0.390  0.388  0.407  0.410  0.398  0.000  0.000
 1991 275    84   140     18    261    435     1    31   125  0.400  0.448  0.468  0.386  0.386  0.403  0.410  0.398  0.000  0.000
 1991 276    85   136     18    261    435     1    31   125  0.394  0.442  0.462  0.383  0.383  0.399  0.410  0.398  0.000  0.000
 1991 277    86   133     18    261    435     1    31   125  0.388  0.436  0.458  0.380  0.381  0.395  0.409  0.398  0.000  0.000
 1991 278    87   132     18    261    435     1    31   125  0.387  0.434  0.455  0.379  0.381  0.394  0.409  0.398  0.000  0.000
 1991 279    88   155     18    261    460     1    31   125  0.563  0.564  0.471  0.378  0.379  0.391  0.409  0.398  0.000  0.000
 1991 280    89   174     18    261    482     1    31   125  0.554  0.555  0.571  0.422  0.378  0.389  0.408  0.398  0.000  0.000
 1991 281    90   170     18    261    482     1    31   125  0.526  0.545  0.553  0.434  0.378  0.386  0.408  0.398  0.000  0.000
 1991 282    91   166     18    261    482     1    31   125  0.517  0.534  0.543  0.432  0.379  0.384  0.407  0.398  0.000  0.000
 1991 283    92   161     18    261    482     1    31   125  0.502  0.526  0.535  0.426  0.378  0.381  0.407  0.398  0.000  0.000
 1991 284    93   156     18    261    482     1    31   125  0.489  0.516  0.526  0.419  0.377  0.378  0.407  0.398  0.000  0.000
 1991 285    94   150     18    261    482     1    31   125  0.474  0.506  0.517  0.412  0.375  0.375  0.406  0.398  0.000  0.000
 1991 286    95   145     18    261    482     1    31   125  0.466  0.495  0.507  0.404  0.373  0.373  0.406  0.398  0.000  0.000
 1991 287    96   149     18    261    489     1    31   125  0.564  0.507  0.501  0.400  0.372  0.372  0.405  0.398  0.000  0.000
 1991 288    97   183     18    261    525     1    31   125  0.537  0.574  0.567  0.468  0.433  0.372  0.405  0.398  0.000  0.000
 1991 289    98   228     23    284    599     1    31   125  0.566  0.567  0.583  0.489  0.458  0.447  0.439  0.432  0.000  0.000
 1991 290    99   209     23    301    599     1    31   125  0.546  0.554  0.564  0.466  0.444  0.433  0.426  0.417  0.000  0.000
 1991 291   100   195     23    310    599     1    31   125  0.523  0.545  0.552  0.451  0.434  0.421  0.419  0.408  0.000  0.000
 1991 292   101   186     23    313    599     1    31   125  0.516  0.532  0.543  0.441  0.427  0.416  0.415  0.403  0.000  0.000
 1991 293   102   179     23    314    599     1    31   125  0.508  0.525  0.536  0.434  0.423  0.410  0.412  0.400  0.000  0.000
 1991 294   103   173     23    315    599     1    31   125  0.500  0.517  0.528  0.428  0.418  0.405  0.410  0.398  0.000  0.000
 1991 295   104   168     23    315    599     1    31   125  0.494  0.511  0.521  0.423  0.413  0.401  0.410  0.398  0.000  0.000
 1991 296   105   169     23    315    602     1    31   125  0.552  0.510  0.518  0.421  0.412  0.399  0.410  0.398  0.000  0.000
 1991 297   106   168     23    315    602     1    31   125  0.522  0.521  0.517  0.419  0.410  0.398  0.409  0.398  0.000  0.000
 1991 298   107   166     23    315    602     1    31   125  0.516  0.519  0.515  0.418  0.409  0.397  0.409  0.398  0.000  0.000
 1991 299   108   161     23    315    602     1    31   125  0.501  0.512  0.511  0.413  0.404  0.392  0.409  0.398  0.000  0.000
 1991 300   109   159     23    315    602     1    31   125  0.498  0.507  0.508  0.410  0.401  0.390  0.408  0.398  0.000  0.000
 1991 301   110   157     23    315    602     1    31   125  0.497  0.503  0.505  0.409  0.400  0.389  0.408  0.398  0.000  0.000
 1991 302   111   156     23    315    602     1    31   125  0.494  0.501  0.503  0.407  0.398  0.388  0.407  0.398  0.000  0.000
 1991 303   112   170     23    315    618     1    31   125  0.565  0.565  0.538  0.406  0.396  0.388  0.407  0.398  0.000  0.000
 1991 304   113   169     23    315    619     1    31   125  0.562  0.558  0.541  0.408  0.395  0.387  0.406  0.398  0.000  0.000
 1991 305   114   166     23    315    619     1    31   125  0.540  0.547  0.536  0.412  0.391  0.384  0.406  0.398  0.000  0.000
 1991 306   115   160     23    315    619     1    31   125  0.522  0.538  0.530  0.408  0.387  0.381  0.404  0.398  0.000  0.000
 1991 307   116   156     23    315    619     1    31   125  0.518  0.526  0.524  0.404  0.384  0.379  0.402  0.398  0.000  0.000
 1991 308   117   150     23    315    619     1    31   125  0.500  0.517  0.515  0.398  0.380  0.376  0.399  0.397  0.000  0.000
 1991 309   118   146     23    315    619     1    31   125  0.492  0.507  0.508  0.394  0.378  0.375  0.396  0.397  0.000  0.000
 1991 310   119   152     23    315    628     1    31   125  0.565  0.546  0.509  0.392  0.377  0.374  0.394  0.397  0.000  0.000
 1991 311   120   148     23    315    628     1    31   125  0.537  0.533  0.511  0.388  0.375  0.372  0.390  0.397  0.000  0.000
 1991 312   121   144     23    315    628     1    31   125  0.516  0.525  0.507  0.386  0.374  0.371  0.387  0.396  0.000  0.000
 1991 313   122   138     23    315    628     1    31   125  0.498  0.513  0.501  0.382  0.371  0.369  0.382  0.396  0.000  0.000
 1991 314   123   134     23    315    628     1    31   125  0.489  0.503  0.495  0.380  0.370  0.368  0.379  0.395  0.000  0.000
 1991 315   124   131     23    315    628     1    31   125  0.479  0.494  0.490  0.378  0.369  0.366  0.376  0.395  0.000  0.000
 1991 316   125   126     23    315    628     1    31   125  0.460  0.484  0.482  0.375  0.367  0.365  0.373  0.394  0.000  0.000
 1991 317   126   122     23    315    628     1    31   125  0.449  0.475  0.475  0.374  0.365  0.364  0.371  0.394  0.000  0.000
 1991 318   127   120     23    315    628     1    31   125  0.447  0.469  0.472  0.373  0.365  0.363  0.370  0.393  0.000  0.000
 1991 319   128   118     23    315    628     1    31   125  0.439  0.463  0.467  0.372  0.364  0.362  0.369  0.392  0.000  0.000
 1991 320   129   114     23    315    628     1    31   125  0.429  0.455  0.460  0.370  0.363  0.361  0.367  0.392  0.000  0.000
 1991 321   130   110     23    315    628     1    31   125  0.411  0.446  0.452  0.368  0.361  0.360  0.365  0.391  0.000  0.000
 1991 322   131   104     23    315    628     1    31   125  0.393  0.435  0.443  0.365  0.360  0.358  0.362  0.389  0.000  0.000
 1991 323   132   129     23    315    628     2    62   125  0.546  0.556  0.487  0.362  0.358  0.357  0.359  0.387  0.000  0.000
 1991 324   133   123     23    315    628     2    62   125  0.514  0.533  0.488  0.362  0.356  0.355  0.357  0.384  0.000  0.000
 1991 325   134   117     23    315    628     2    62   125  0.490  0.510  0.480  0.361  0.355  0.354  0.355  0.380  0.000  0.000
 1991 326   135   110     23    315    628     2    62   125  0.460  0.492  0.470  0.359  0.353  0.352  0.353  0.375  0.000  0.000
 1991 327   136   104     23    315    628     2    62   125  0.438  0.475  0.460  0.358  0.352  0.351  0.352  0.370  0.000  0.000
 1991 328   137   102     23    315    628     2    62   125  0.436  0.467  0.457  0.358  0.352  0.351  0.352  0.369  0.000  0.000
 1991 329   138   177     27    315    710     2    62   125  0.574  0.564  0.565  0.470  0.460  0.384  0.351  0.367  0.000  0.000
 1991 330   139   204     28    315    741     2    62   125  0.552  0.565  0.565  0.467  0.457  0.446  0.408  0.366  0.000  0.000
 1991 331   140   203     28    315    744     2    62   125  0.543  0.565  0.563  0.462  0.454  0.437  0.419  0.376  0.000  0.000
 1991 332   141   193     28    320    744     2    62   125  0.516  0.554  0.552  0.450  0.443  0.426  0.410  0.393  0.000  0.000
 1991 333   142   197     28    320    752     2    62   125  0.565  0.557  0.559  0.450  0.442  0.423  0.410  0.395  0.000  0.000
 1991 334   143   186     28    324    752     2    62   125  0.518  0.548  0.549  0.441  0.433  0.417  0.405  0.392  0.000  0.000
 1991 335   144   180     28    324    752     2    62   125  0.509  0.534  0.543  0.437  0.429  0.415  0.401  0.389  0.000  0.000
 1991 336   145   173     28    324    752     2    62   125  0.491  0.525  0.536  0.432  0.425  0.411  0.397  0.386  0.000  0.000
 1991 337   146   170     28    324    752     2    62   125  0.493  0.517  0.531  0.430  0.423  0.408  0.395  0.384  0.000  0.000
 1991 338   147   163     28    324    752     2    62   125  0.468  0.510  0.524  0.425  0.418  0.404  0.390  0.381  0.000  0.000
 1991 339   148   175     28    324    768     2    62   125  0.566  0.561  0.547  0.430  0.416  0.402  0.388  0.379  0.000  0.000
 1991 340   149   168     28    324    768     2    62   125  0.517  0.549  0.540  0.434  0.414  0.397  0.384  0.375  0.000  0.000
 1991 341   150   164     28    324    768     2    62   125  0.516  0.533  0.539  0.431  0.412  0.395  0.382  0.373  0.000  0.000
 1991 342   151   157     28    324    768     2    62   125  0.491  0.526  0.532  0.427  0.408  0.391  0.378  0.370  0.000  0.000
 1991 343   152   171     28    324    784     2    62   125  0.573  0.561  0.564  0.440  0.409  0.390  0.377  0.368  0.000  0.000
 1991 344   153   184     28    324    802     2    62   125  0.534  0.564  0.564  0.465  0.457  0.403  0.375  0.365  0.000  0.000
 1991 345   154   179     28    324    802     2    62   125  0.515  0.548  0.552  0.451  0.443  0.416  0.377  0.364  0.000  0.000
 1991 346   155   177     28    324    802     2    62   125  0.525  0.535  0.546  0.444  0.437  0.417  0.385  0.363  0.000  0.000
 1991 347   156   180     28    324    811     2    62   125  0.534  0.562  0.555  0.445  0.435  0.415  0.380  0.360  0.000  0.000
 1991 348   157   192     28    324    825     2    62   125  0.563  0.562  0.567  0.468  0.457  0.421  0.383  0.360  0.000  0.000
 1991 349   158   191     28    324    827     2    62   125  0.555  0.560  0.562  0.464  0.456  0.423  0.389  0.359  0.000  0.000
 1991 350   159   195     28    324    835     2    62   125  0.537  0.566  0.566  0.468  0.459  0.426  0.397  0.358  0.000  0.000
 1991 351   160   194     28    324    841     2    62   125  0.529  0.563  0.566  0.467  0.458  0.425  0.403  0.356  0.000  0.000
 1991 352   161   188     28    324    841     2    62   125  0.496  0.546  0.554  0.453  0.445  0.418  0.402  0.387  0.000  0.000
 1991 353   162   208     28    324    867     2    62   125  0.549  0.558  0.565  0.467  0.458  0.441  0.418  0.393  0.000  0.000
 1991 354   163   205     28    324    871     2    62   125  0.517  0.564  0.561  0.461  0.455  0.435  0.420  0.396  0.000  0.000
 1991 355   164   191     28    332    871     2    62   125  0.494  0.543  0.551  0.449  0.443  0.425  0.411  0.392  0.000  0.000
 1991 356   165   186     28    334    871     2    62   125  0.510  0.528  0.544  0.443  0.437  0.421  0.409  0.394  0.000  0.000
 1991 357   166   216     28    337    909     2    62   125  0.537  0.563  0.562  0.466  0.457  0.444  0.436  0.417  0.000  0.000
 1991 358   167   197     28    349    909     2    62   125  0.489  0.547  0.551  0.452  0.444  0.432  0.419  0.404  0.000  0.000
 1991 359   168   187     28    354    909     2    62   125  0.490  0.527  0.543  0.444  0.437  0.425  0.412  0.398  0.000  0.000
 1991 360   169   186     28    355    914     2    62   125  0.544  0.532  0.537  0.439  0.434  0.421  0.410  0.396  0.000  0.000
 1991 361   170   180     28    355    914     2    62   125  0.483  0.533  0.534  0.435  0.430  0.418  0.407  0.393  0.000  0.000
 1991 362   171   174     28    355    914     2    62   125  0.475  0.518  0.528  0.431  0.427  0.415  0.404  0.390  0.000  0.000
 1991 363   172   167     28    355    914     2    62   125  0.442  0.508  0.522  0.427  0.423  0.411  0.400  0.387  0.000  0.000
 1991 364   173   162     28    355    914     2    62   125  0.436  0.498  0.517  0.424  0.420  0.408  0.397  0.385  0.000  0.000
 1991 365   174   158     28    355    914     2    62   125  0.431  0.490  0.512  0.421  0.418  0.406  0.395  0.383  0.000  0.000
 1992 001   175   156     28    355    914     2    62   125  0.428  0.485  0.508  0.420  0.416  0.405  0.394  0.382  0.000  0.000
 1992 002   176   172     28    355    935     2    62   125  0.540  0.562  0.539  0.417  0.414  0.402  0.392  0.380  0.000  0.000
 1992 003   177   165     28    355    935     2    62   125  0.484  0.550  0.538  0.418  0.411  0.400  0.389  0.378  0.000  0.000
 1992 004   178   159     28    355    935     2    62   125  0.472  0.525  0.534  0.416  0.408  0.396  0.386  0.375  0.000  0.000
 1992 005   179   153     28    355    935     2    62   125  0.448  0.513  0.526  0.414  0.405  0.393  0.383  0.372  0.000  0.000
 1992 006   180   149     28    355    935     2    62   125  0.444  0.502  0.520  0.412  0.403  0.391  0.381  0.370  0.000  0.000

*DSSAT Cropping System Model Ver. 4.0.2.000               Aug 03, 2016; 12:58:46

*RUN   3        : UYMZ                    
 MODEL          : MZCER040 - Maize           
 EXPERIMENT     : UYMZ0112 MZ    late to create DSS                             
 TREATMENT  1   : UYMZ                    

@YEAR DOY   DAS  SWXD   ROFC   DRNC   PREC  IR#C  IRRC  DTWT   SW1D   SW2D   SW3D   SW4D   SW5D   SW6D   SW7D   SW8D   SW9D   SW10
 1992 191     0   116      0      0      0     0     0   125  0.357  0.394  0.394  0.335  0.375  0.419  0.408  0.395  0.000  0.000
 1992 192     1   113      0      0      0     0     0   125  0.303  0.393  0.394  0.335  0.376  0.418  0.408  0.395  0.000  0.000
 1992 193     2   112      0      0      0     0     0   125  0.277  0.391  0.394  0.336  0.376  0.418  0.408  0.395  0.000  0.000
 1992 194     3   153      0      0      0     1    44   125  0.513  0.566  0.476  0.336  0.377  0.417  0.408  0.395  0.000  0.000
 1992 195     4   151      0      0      0     1    44   125  0.496  0.535  0.487  0.338  0.377  0.417  0.408  0.395  0.000  0.000
 1992 196     5   197      0      0     47     1    44   125  0.569  0.553  0.570  0.472  0.429  0.416  0.408  0.395  0.000  0.000
 1992 197     6   195      0      0     47     1    44   125  0.524  0.553  0.562  0.466  0.441  0.420  0.408  0.395  0.000  0.000
 1992 198     7   190      0      4     47     1    44   125  0.517  0.541  0.554  0.455  0.437  0.420  0.408  0.395  0.000  0.000
 1992 199     8   187      0      6     47     1    44   125  0.503  0.534  0.547  0.448  0.435  0.420  0.408  0.395  0.000  0.000
 1992 200     9   185      0      6     47     1    44   125  0.498  0.528  0.542  0.445  0.436  0.421  0.408  0.395  0.000  0.000
 1992 201    10   185      0      6     48     1    44   125  0.505  0.524  0.538  0.442  0.436  0.421  0.411  0.395  0.000  0.000
 1992 202    11   182      0      7     48     1    44   125  0.468  0.523  0.535  0.440  0.434  0.421  0.411  0.395  0.000  0.000
 1992 203    12   180      0      7     48     1    44   125  0.467  0.515  0.532  0.439  0.434  0.421  0.411  0.395  0.000  0.000
 1992 204    13   179      0      7     48     1    44   125  0.467  0.510  0.529  0.438  0.434  0.421  0.411  0.395  0.000  0.000
 1992 205    14   178      0      7     48     1    44   125  0.467  0.506  0.527  0.437  0.434  0.421  0.411  0.395  0.000  0.000
 1992 206    15   177      0      7     48     1    44   125  0.467  0.503  0.524  0.436  0.434  0.421  0.411  0.395  0.000  0.000
 1992 207    16   177      0      7     48     1    44   125  0.466  0.501  0.522  0.435  0.434  0.421  0.411  0.395  0.000  0.000
 1992 208    17   176      0      7     48     1    44   125  0.466  0.499  0.520  0.434  0.433  0.421  0.411  0.395  0.000  0.000
 1992 209    18   179      0      7     53     1    44   125  0.520  0.502  0.518  0.433  0.433  0.421  0.411  0.395  0.000  0.000
 1992 210    19   178      0      7     53     1    44   125  0.495  0.509  0.518  0.432  0.433  0.421  0.411  0.395  0.000  0.000
 1992 211    20   178      0      7     54     1    44   125  0.508  0.508  0.518  0.432  0.433  0.421  0.411  0.395  0.000  0.000
 1992 212    21   181      0      7     58     1    44   125  0.546  0.517  0.518  0.431  0.432  0.421  0.411  0.395  0.000  0.000
 1992 213    22   180      0      7     58     1    44   125  0.504  0.525  0.519  0.430  0.432  0.421  0.411  0.395  0.000  0.000
 1992 214    23   179      0      7     58     1    44   125  0.498  0.519  0.520  0.430  0.432  0.421  0.411  0.395  0.000  0.000
 1992 215    24   178      0      7     58     1    44   125  0.493  0.514  0.520  0.430  0.431  0.421  0.411  0.395  0.000  0.000
 1992 216    25   177      0      7     58     1    44   125  0.488  0.510  0.519  0.429  0.431  0.421  0.411  0.395  0.000  0.000
 1992 217    26   176      0      7     58     1    44   125  0.485  0.508  0.518  0.429  0.430  0.421  0.411  0.395  0.000  0.000
 1992 218    27   176      0      7     58     1    44   125  0.483  0.505  0.517  0.429  0.430  0.421  0.411  0.395  0.000  0.000
 1992 219    28   175      0      7     58     1    44   125  0.480  0.503  0.516  0.428  0.430  0.421  0.411  0.395  0.000  0.000
 1992 220    29   174      0      7     58     1    44   125  0.478  0.501  0.515  0.428  0.429  0.421  0.411  0.395  0.000  0.000
 1992 221    30   175      0      7     60     1    44   125  0.497  0.499  0.514  0.427  0.429  0.421  0.411  0.395  0.000  0.000
 1992 222    31   174      0      7     60     1    44   125  0.487  0.501  0.513  0.427  0.429  0.421  0.411  0.395  0.000  0.000
 1992 223    32   174      0      7     60     1    44   125  0.482  0.500  0.512  0.427  0.428  0.421  0.411  0.395  0.000  0.000
 1992 224    33   173      0      7     60     1    44   125  0.480  0.499  0.511  0.426  0.428  0.421  0.411  0.395  0.000  0.000
 1992 225    34   173      0      7     60     1    44   125  0.478  0.498  0.511  0.426  0.428  0.421  0.411  0.395  0.000  0.000
 1992 226    35   172      0      7     60     1    44   125  0.476  0.496  0.510  0.425  0.427  0.421  0.411  0.395  0.000  0.000
 1992 227    36   172      0      7     60     1    44   125  0.474  0.495  0.509  0.425  0.427  0.421  0.411  0.395  0.000  0.000
 1992 228    37   171      0      7     60     1    44   125  0.473  0.494  0.508  0.424  0.427  0.421  0.411  0.395  0.000  0.000
 1992 229    38   171      0      7     60     1    44   125  0.472  0.492  0.507  0.424  0.426  0.421  0.411  0.395  0.000  0.000
 1992 230    39   171      0      7     60     1    44   125  0.471  0.491  0.506  0.424  0.426  0.421  0.411  0.395  0.000  0.000
 1992 231    40   170      0      7     60     1    44   125  0.470  0.490  0.505  0.423  0.426  0.421  0.411  0.395  0.000  0.000
 1992 232    41   170      0      7     60     1    44   125  0.469  0.489  0.505  0.423  0.426  0.421  0.411  0.395  0.000  0.000
 1992 233    42   169      0      7     60     1    44   125  0.468  0.488  0.504  0.422  0.425  0.421  0.411  0.395  0.000  0.000
 1992 234    43   169      0      7     60     1    44   125  0.467  0.487  0.503  0.422  0.425  0.421  0.411  0.395  0.000  0.000
 1992 235    44   169      0      7     61     1    44   125  0.479  0.486  0.502  0.421  0.425  0.421  0.411  0.395  0.000  0.000
 1992 236    45   171      0      7     67     1    44   125  0.496  0.502  0.501  0.421  0.425  0.421  0.411  0.395  0.000  0.000
 1992 237    46   171      0      7     67     1    44   125  0.490  0.500  0.502  0.421  0.424  0.420  0.411  0.395  0.000  0.000
 1992 238    47   170      0      7     67     1    44   125  0.485  0.498  0.502  0.420  0.424  0.420  0.411  0.395  0.000  0.000
 1992 239    48   170      0      7     67     1    44   125  0.482  0.496  0.502  0.420  0.424  0.420  0.411  0.395  0.000  0.000
 1992 240    49   169      0      7     67     1    44   125  0.479  0.494  0.502  0.420  0.424  0.420  0.411  0.395  0.000  0.000
 1992 241    50   169      0      7     67     1    44   125  0.476  0.492  0.502  0.419  0.423  0.420  0.411  0.395  0.000  0.000
 1992 242    51   168      0      7     67     1    44   125  0.474  0.490  0.501  0.419  0.423  0.420  0.411  0.395  0.000  0.000
 1992 243    52   168      0      7     67     1    44   125  0.472  0.489  0.501  0.419  0.423  0.420  0.411  0.395  0.000  0.000
 1992 244    53   173      0      7     73     1    44   125  0.546  0.499  0.500  0.419  0.423  0.420  0.411  0.395  0.000  0.000
 1992 245    54   172      0      7     73     1    44   125  0.509  0.511  0.502  0.418  0.422  0.420  0.411  0.395  0.000  0.000
 1992 246    55   171      0      7     73     1    44   125  0.500  0.508  0.503  0.418  0.422  0.420  0.411  0.395  0.000  0.000
 1992 247    56   171      0      7     73     1    44   125  0.494  0.505  0.503  0.418  0.422  0.419  0.411  0.395  0.000  0.000
 1992 248    57   170      0      7     73     1    44   125  0.488  0.501  0.503  0.418  0.422  0.419  0.411  0.395  0.000  0.000
 1992 249    58   169      0      7     73     1    44   125  0.484  0.497  0.502  0.418  0.422  0.419  0.411  0.395  0.000  0.000
 1992 250    59   168      0      7     73     1    44   125  0.479  0.494  0.501  0.418  0.421  0.419  0.411  0.395  0.000  0.000
 1992 251    60   168      0      7     73     1    44   125  0.475  0.491  0.500  0.418  0.421  0.419  0.411  0.395  0.000  0.000
 1992 252    61   167      0      7     73     1    44   125  0.472  0.489  0.499  0.417  0.421  0.419  0.411  0.395  0.000  0.000
 1992 253    62   166      0      7     73     1    44   125  0.469  0.487  0.498  0.417  0.421  0.419  0.411  0.395  0.000  0.000
 1992 254    63   166      0      7     73     1    44   125  0.466  0.484  0.496  0.417  0.421  0.419  0.411  0.395  0.000  0.000
 1992 255    64   168      0      7     77     1    44   125  0.515  0.483  0.495  0.416  0.421  0.419  0.411  0.395  0.000  0.000
 1992 256    65   167      0      7     79     1    44   125  0.505  0.488  0.493  0.416  0.421  0.418  0.411  0.395  0.000  0.000
 1992 257    66   166      0      7     79     1    44   125  0.488  0.490  0.493  0.416  0.420  0.418  0.411  0.395  0.000  0.000
 1992 258    67   165      0      7     79     1    44   125  0.478  0.488  0.491  0.415  0.420  0.418  0.411  0.395  0.000  0.000
 1992 259    68   164      0      7     79     1    44   125  0.470  0.483  0.489  0.415  0.420  0.418  0.411  0.395  0.000  0.000
 1992 260    69   163      0      7     79     1    44   125  0.464  0.480  0.487  0.414  0.420  0.418  0.411  0.395  0.000  0.000
 1992 261    70   162      0      7     79     1    44   125  0.459  0.476  0.485  0.414  0.420  0.418  0.411  0.395  0.000  0.000
 1992 262    71   162      0      7     83     1    44   125  0.481  0.471  0.481  0.413  0.419  0.418  0.411  0.395  0.000  0.000
 1992 263    72   160      0      7     83     1    44   125  0.466  0.469  0.478  0.412  0.419  0.418  0.411  0.395  0.000  0.000
 1992 264    73   158      0      7     83     1    44   125  0.455  0.465  0.474  0.411  0.419  0.418  0.411  0.395  0.000  0.000
 1992 265    74   156      0      7     83     1    44   125  0.445  0.460  0.470  0.410  0.419  0.417  0.410  0.395  0.000  0.000
 1992 266    75   167      0      7     95     1    44   125  0.554  0.517  0.469  0.409  0.418  0.417  0.410  0.395  0.000  0.000
 1992 267    76   174      0      7    105     1    44   125  0.505  0.567  0.497  0.408  0.418  0.417  0.410  0.395  0.000  0.000
 1992 268    77   172      0      7    105     1    44   125  0.517  0.532  0.508  0.409  0.418  0.417  0.410  0.395  0.000  0.000
 1992 269    78   186      0      7    122     1    44   125  0.529  0.554  0.562  0.424  0.418  0.417  0.410  0.395  0.000  0.000
 1992 270    79   182      0      7    122     1    44   125  0.492  0.539  0.549  0.436  0.418  0.417  0.410  0.395  0.000  0.000
 1992 271    80   178      0      7    122     1    44   125  0.474  0.523  0.538  0.437  0.419  0.417  0.410  0.395  0.000  0.000
 1992 272    81   174      0      7    122     1    44   125  0.444  0.512  0.530  0.435  0.420  0.417  0.410  0.395  0.000  0.000
 1992 273    82   171      0      7    122     1    44   125  0.438  0.500  0.522  0.432  0.420  0.417  0.410  0.395  0.000  0.000
 1992 274    83   168      0      7    122     1    44   125  0.432  0.490  0.515  0.429  0.421  0.417  0.410  0.395  0.000  0.000
 1992 275    84   166      0      7    122     1    44   125  0.428  0.484  0.509  0.427  0.421  0.417  0.410  0.395  0.000  0.000
 1992 276    85   166      0      7    124     1    44   125  0.450  0.478  0.504  0.425  0.421  0.417  0.410  0.395  0.000  0.000
 1992 277    86   163      0      7    124     1    44   125  0.435  0.473  0.498  0.422  0.421  0.416  0.410  0.395  0.000  0.000
 1992 278    87   161      0      7    124     1    44   125  0.424  0.467  0.492  0.419  0.421  0.416  0.410  0.395  0.000  0.000
 1992 279    88   159      0      7    124     1    44   125  0.417  0.464  0.489  0.417  0.420  0.416  0.410  0.395  0.000  0.000
 1992 280    89   167      0      7    136     1    44   125  0.529  0.500  0.482  0.413  0.420  0.416  0.410  0.395  0.000  0.000
 1992 281    90   163      0      7    136     1    44   125  0.479  0.500  0.479  0.410  0.419  0.416  0.410  0.395  0.000  0.000
 1992 282    91   158      0      7    136     1    44   125  0.438  0.488  0.475  0.406  0.418  0.416  0.410  0.395  0.000  0.000
 1992 283    92   154      0      7    136     1    44   125  0.413  0.474  0.470  0.402  0.417  0.416  0.410  0.395  0.000  0.000
 1992 284    93   150      0      7    136     1    44   125  0.399  0.461  0.464  0.397  0.415  0.416  0.410  0.395  0.000  0.000
 1992 285    94   147      0      7    136     1    44   125  0.388  0.452  0.459  0.393  0.413  0.416  0.410  0.395  0.000  0.000
 1992 286    95   143      0      7    136     1    44   125  0.379  0.441  0.452  0.387  0.411  0.416  0.410  0.395  0.000  0.000
 1992 287    96   167      0      7    136     2    74   125  0.533  0.557  0.492  0.382  0.408  0.416  0.410  0.395  0.000  0.000
 1992 288    97   162      0      7    136     2    74   125  0.492  0.530  0.493  0.379  0.404  0.415  0.409  0.395  0.000  0.000
 1992 289    98   160      0      7    136     2    74   125  0.501  0.512  0.491  0.379  0.403  0.415  0.409  0.395  0.000  0.000
 1992 290    99   188      0      7    166     2    74   125  0.558  0.560  0.565  0.442  0.404  0.415  0.409  0.395  0.000  0.000
 1992 291   100   183      0      7    166     2    74   125  0.517  0.546  0.549  0.433  0.420  0.415  0.409  0.395  0.000  0.000
 1992 292   101   178      0      7    166     2    74   125  0.503  0.529  0.538  0.430  0.417  0.415  0.409  0.395  0.000  0.000
 1992 293   102   176      0      7    166     2    74   125  0.508  0.522  0.532  0.428  0.416  0.415  0.409  0.395  0.000  0.000
 1992 294   103   186      0      7    180     2    74   125  0.547  0.560  0.555  0.434  0.414  0.414  0.409  0.395  0.000  0.000
 1992 295   104   181      0      7    180     2    74   125  0.513  0.546  0.543  0.431  0.417  0.414  0.409  0.395  0.000  0.000
 1992 296   105   176      0      7    180     2    74   125  0.507  0.528  0.534  0.426  0.411  0.414  0.409  0.395  0.000  0.000
 1992 297   106   170      0      7    180     2    74   125  0.490  0.517  0.525  0.419  0.405  0.413  0.409  0.395  0.000  0.000
 1992 298   107   165      0      7    180     2    74   125  0.474  0.505  0.515  0.412  0.399  0.412  0.409  0.395  0.000  0.000
 1992 299   108   162      0      7    180     2    74   125  0.477  0.499  0.510  0.410  0.397  0.412  0.409  0.395  0.000  0.000
 1992 300   109   156      0      7    180     2    74   125  0.456  0.489  0.500  0.402  0.389  0.411  0.408  0.395  0.000  0.000
 1992 301   110   150      0      7    180     2    74   125  0.437  0.477  0.490  0.393  0.383  0.409  0.408  0.395  0.000  0.000
 1992 302   111   150      0      7    182     2    74   125  0.470  0.471  0.485  0.390  0.383  0.409  0.408  0.395  0.000  0.000
 1992 303   112   145      0      7    183     2    74   125  0.470  0.464  0.476  0.383  0.379  0.407  0.408  0.395  0.000  0.000
 1992 304   113   140      0      7    183     2    74   125  0.448  0.457  0.466  0.378  0.375  0.405  0.408  0.395  0.000  0.000
 1992 305   114   135      0      7    183     2    74   125  0.429  0.448  0.456  0.373  0.372  0.403  0.408  0.395  0.000  0.000
 1992 306   115   129      0      7    183     2    74   125  0.413  0.436  0.445  0.369  0.369  0.399  0.407  0.395  0.000  0.000
 1992 307   116   123      0      7    183     2    74   125  0.400  0.424  0.433  0.365  0.366  0.395  0.407  0.395  0.000  0.000
 1992 308   117   168      0      7    200     3   106   125  0.561  0.561  0.559  0.405  0.364  0.391  0.407  0.395  0.000  0.000
 1992 309   118   164      0      7    200     3   106   125  0.537  0.546  0.542  0.414  0.363  0.389  0.406  0.395  0.000  0.000
 1992 310   119   159      0      7    200     3   106   125  0.528  0.535  0.533  0.410  0.363  0.387  0.406  0.395  0.000  0.000
 1992 311   120   154      0      7    200     3   106   125  0.515  0.525  0.523  0.403  0.363  0.385  0.406  0.395  0.000  0.000
 1992 312   121   149      0      7    200     3   106   125  0.501  0.514  0.513  0.395  0.362  0.383  0.405  0.395  0.000  0.000
 1992 313   122   143      0      7    200     3   106   125  0.486  0.502  0.503  0.387  0.361  0.381  0.405  0.395  0.000  0.000
 1992 314   123   137      0      7    200     3   106   125  0.469  0.488  0.491  0.380  0.360  0.378  0.405  0.395  0.000  0.000
 1992 315   124   135      0      7    200     3   106   125  0.468  0.482  0.486  0.378  0.360  0.377  0.404  0.395  0.000  0.000
 1992 316   125   134      0      7    204     3   106   125  0.529  0.472  0.475  0.374  0.358  0.375  0.404  0.394  0.000  0.000
 1992 317   126   128      0      7    204     3   106   125  0.481  0.470  0.462  0.369  0.357  0.372  0.404  0.394  0.000  0.000
 1992 318   127   121      0      7    204     3   106   125  0.453  0.458  0.450  0.365  0.355  0.370  0.402  0.394  0.000  0.000
 1992 319   128   117      0      7    204     3   106   125  0.436  0.448  0.441  0.363  0.354  0.368  0.401  0.394  0.000  0.000
 1992 320   129   139      0      7    231     3   106   125  0.551  0.556  0.487  0.360  0.353  0.366  0.398  0.394  0.000  0.000
 1992 321   130   133      0      7    231     3   106   125  0.526  0.530  0.486  0.359  0.351  0.365  0.395  0.394  0.000  0.000
 1992 322   131   128      0      7    231     3   106   125  0.509  0.512  0.478  0.359  0.350  0.363  0.390  0.393  0.000  0.000
 1992 323   132   122      0      7    231     3   106   125  0.489  0.497  0.469  0.358  0.349  0.361  0.383  0.393  0.000  0.000
 1992 324   133   116      0      7    231     3   106   125  0.469  0.481  0.459  0.356  0.348  0.360  0.376  0.393  0.000  0.000
 1992 325   134   111      0      7    231     3   106   125  0.454  0.468  0.450  0.355  0.347  0.358  0.372  0.392  0.000  0.000
 1992 326   135   109      0      7    231     3   106   125  0.451  0.462  0.447  0.355  0.347  0.358  0.370  0.392  0.000  0.000
 1992 327   136   104      0      7    231     3   106   125  0.434  0.450  0.437  0.354  0.346  0.357  0.367  0.391  0.000  0.000
 1992 328   137   100      0      7    231     3   106   125  0.422  0.439  0.429  0.352  0.346  0.355  0.364  0.390  0.000  0.000
 1992 329   138   125      0      7    231     4   137   125  0.554  0.553  0.490  0.350  0.345  0.354  0.360  0.390  0.000  0.000
 1992 330   139   120      0      7    231     4   137   125  0.530  0.530  0.489  0.351  0.344  0.352  0.358  0.389  0.000  0.000
 1992 331   140   116      0      7    231     4   137   125  0.513  0.515  0.482  0.351  0.343  0.351  0.356  0.388  0.000  0.000
 1992 332   141   110      0      7    231     4   137   125  0.486  0.496  0.469  0.351  0.342  0.350  0.354  0.388  0.000  0.000
 1992 333   142   105      0      7    231     4   137   125  0.470  0.481  0.459  0.350  0.341  0.349  0.352  0.387  0.000  0.000
 1992 334   143   101      0      7    231     4   137   125  0.454  0.467  0.449  0.349  0.341  0.348  0.351  0.386  0.000  0.000
 1992 335   144   130      0      7    265     4   137   125  0.549  0.554  0.548  0.360  0.340  0.346  0.349  0.386  0.000  0.000
 1992 336   145   123      0      7    265     4   137   125  0.519  0.535  0.527  0.368  0.339  0.345  0.348  0.385  0.000  0.000
 1992 337   146   117      0      7    265     4   137   125  0.506  0.516  0.511  0.367  0.339  0.344  0.346  0.383  0.000  0.000
 1992 338   147   112      0      7    265     4   137   125  0.488  0.501  0.498  0.365  0.338  0.343  0.345  0.381  0.000  0.000
 1992 339   148   105      0      7    265     4   137   125  0.465  0.484  0.482  0.363  0.338  0.342  0.344  0.378  0.000  0.000
 1992 340   149   101      0      7    265     4   137   125  0.453  0.472  0.472  0.361  0.338  0.341  0.343  0.375  0.000  0.000
 1992 341   150   125      0      7    295     4   137   125  0.548  0.553  0.546  0.371  0.337  0.340  0.342  0.372  0.000  0.000
 1992 342   151   120      0      7    295     4   137   125  0.524  0.539  0.530  0.376  0.337  0.340  0.341  0.369  0.000  0.000
 1992 343   152   114      0      7    295     4   137   125  0.513  0.521  0.516  0.374  0.337  0.339  0.340  0.366  0.000  0.000
 1992 344   153   109      0      7    295     4   137   125  0.498  0.508  0.505  0.372  0.337  0.338  0.339  0.364  0.000  0.000
 1992 345   154   104      0      7    295     4   137   125  0.481  0.495  0.492  0.369  0.336  0.338  0.339  0.362  0.000  0.000
 1992 346   155    99      0      7    295     4   137   125  0.465  0.482  0.480  0.366  0.336  0.337  0.338  0.359  0.000  0.000
 1992 347   156    92      0      7    295     4   137   125  0.442  0.465  0.465  0.363  0.336  0.336  0.337  0.357  0.000  0.000
 1992 348   157    85      0      7    295     4   137   125  0.415  0.447  0.449  0.359  0.335  0.335  0.336  0.354  0.000  0.000
 1992 349   158    79      0      7    295     4   137   125  0.400  0.429  0.433  0.356  0.334  0.334  0.334  0.352  0.000  0.000
 1992 350   159   104      0      7    295     5   168   125  0.552  0.553  0.480  0.352  0.333  0.333  0.333  0.349  0.000  0.000
 1992 351   160    99      0      7    295     5   168   125  0.522  0.526  0.476  0.352  0.333  0.333  0.332  0.348  0.000  0.000
 1992 352   161    94      0      7    295     5   168   125  0.504  0.508  0.469  0.351  0.332  0.332  0.332  0.346  0.000  0.000
 1992 353   162    87      0      7    295     5   168   125  0.473  0.487  0.454  0.350  0.332  0.331  0.331  0.345  0.000  0.000
 1992 354   163    83      0      7    295     5   168   125  0.458  0.472  0.445  0.349  0.331  0.331  0.330  0.344  0.000  0.000
 1992 355   164    75      0      7    295     5   168   125  0.423  0.450  0.427  0.347  0.331  0.330  0.329  0.342  0.000  0.000
 1992 356   165    99      0      7    295     6   198   125  0.547  0.546  0.489  0.345  0.330  0.329  0.328  0.340  0.000  0.000
 1992 357   166   103      0      7    301     6   198   125  0.554  0.553  0.505  0.346  0.330  0.329  0.328  0.340  0.000  0.000
 1992 358   167   100      0      7    301     6   198   125  0.536  0.535  0.505  0.348  0.330  0.329  0.327  0.339  0.000  0.000
 1992 359   168   124      0      7    332     6   198   125  0.533  0.547  0.554  0.451  0.337  0.328  0.327  0.338  0.000  0.000
 1992 360   169   119      0      7    332     6   198   125  0.517  0.532  0.540  0.435  0.350  0.328  0.326  0.337  0.000  0.000
 1992 361   170   112      0      7    332     6   198   125  0.495  0.518  0.526  0.421  0.351  0.327  0.326  0.336  0.000  0.000
 1992 362   171   106      0      7    332     6   198   125  0.474  0.503  0.512  0.409  0.350  0.327  0.325  0.336  0.000  0.000
 1992 363   172    99      0      7    332     6   198   125  0.451  0.488  0.499  0.397  0.350  0.327  0.325  0.335  0.000  0.000
 1992 364   173    96      0      7    332     6   198   125  0.452  0.481  0.493  0.393  0.350  0.327  0.325  0.334  0.000  0.000
 1992 365   174    99      0      7    337     6   198   125  0.545  0.477  0.488  0.389  0.350  0.326  0.325  0.334  0.000  0.000
 1992 366   175   154      0      7    394     6   198   125  0.527  0.579  0.564  0.467  0.460  0.346  0.325  0.334  0.000  0.000
 1993 001   176   224     17      7    483     6   198   125  0.575  0.581  0.583  0.489  0.457  0.447  0.439  0.399  0.000  0.000
 1993 002   177   222     17     13    489     6   198   125  0.558  0.566  0.566  0.468  0.459  0.446  0.438  0.431  0.000  0.000
 1993 003   178   222     17     20    497     6   198   125  0.557  0.567  0.567  0.469  0.460  0.445  0.437  0.431  0.000  0.000
 1993 004   179   220     17     34    514     6   198   125  0.549  0.566  0.566  0.467  0.458  0.445  0.437  0.429  0.000  0.000
 1993 005   180   201     17     48    514     6   198   125  0.512  0.553  0.553  0.452  0.444  0.431  0.421  0.414  0.000  0.000
 1993 006   181   187     17     54    514     6   198   125  0.493  0.532  0.544  0.441  0.434  0.422  0.411  0.404  0.000  0.000
 1993 007   182   183     17     55    514     6   198   125  0.502  0.523  0.539  0.439  0.432  0.420  0.409  0.400  0.000  0.000
 1993 008   183   204     17     56    540     6   198   125  0.552  0.563  0.562  0.466  0.457  0.427  0.412  0.400  0.000  0.000
 1993 009   184   190     17     63    540     6   198   125  0.503  0.549  0.551  0.449  0.444  0.419  0.405  0.396  0.000  0.000
 1993 010   185   181     17     65    540     6   198   125  0.484  0.528  0.543  0.440  0.435  0.415  0.403  0.394  0.000  0.000
 1993 011   186   174     17     65    540     6   198   125  0.473  0.517  0.535  0.435  0.429  0.411  0.398  0.392  0.000  0.000
 1993 012   187   166     17     65    540     6   198   125  0.439  0.508  0.526  0.430  0.424  0.406  0.394  0.390  0.000  0.000
 1993 013   188   161     17     65    540     6   198   125  0.432  0.498  0.520  0.426  0.421  0.403  0.391  0.388  0.000  0.000
 1993 014   189   157     17     65    540     6   198   125  0.428  0.490  0.514  0.423  0.418  0.400  0.389  0.387  0.000  0.000
 1993 015   190   202     17     65    592     6   198   125  0.536  0.560  0.561  0.465  0.456  0.436  0.406  0.387  0.000  0.000
