*GROWTH ASPECTS OUTPUT FILE

*DSSAT Cropping System Model Ver. 4.0.2.000               Jul 19, 2016; 15:23:40

*RUN   1        : UYMZ                    
 MODEL          : MZCER040 - Maize           
 EXPERIMENT     : UYMZ0017 MZ    late to create DSS                             
 TREATMENT  1   : UYMZ                    

@YEAR DOY   DAS   DAP   L#SD   GSTD   LAID   LWAD   SWAD   GWAD   RWAD   CWAD   G#AD   GWGD   HIAD   PWAD   P#AD   WSPD   WSGD   NSTD   EWSD   LN%D   SH%D   HIPD   PWDD   PWTD     SLAD   CHTD   CWID   RDPD   RL1D   RL2D   RL3D   RL4D   RL5D   RL6D   RL7D   RL8D   RL9D   RL10   CDAD   LDAD   SDAD   SNW0C   SNW1C
 1990 187     3     0    0.0      0   0.00      0      0      0      0      0      0    0.0  0.000      0      0  0.000  0.000  0.000  0.000   0.00   0.00   0.00      0      0      0.0   0.00   0.00   0.03   0.00   0.00   0.00   0.00   0.00   0.00   0.00   0.00   0.00   0.00      0      0      0       0       0
 1990 188     4     1    0.0      0   0.00      0      0      0      0      0      0    0.0  0.000      0      0  0.000  0.000  0.000  0.000   0.00   0.00   0.00      0      0      0.0   0.00   0.00   0.03   0.00   0.00   0.00   0.00   0.00   0.00   0.00   0.00   0.00   0.00      0      0      0       0       0
 1990 189     5     2    0.0      0   0.00      0      0      0      0      0      0    0.0  0.000      0      0  0.000  0.000  0.000  0.000   0.00   0.00   0.00      0      0      0.0   0.00   0.00   0.03   0.00   0.00   0.00   0.00   0.00   0.00   0.00   0.00   0.00   0.00      0      0      0       0       0
 1990 190     6     3    0.0      0   0.00      0      0      0      0      0      0    0.0  0.000      0      0  0.000  0.000  0.000  0.000   0.00   0.00   0.00      0      0      0.0   0.00   0.00   0.03   0.00   0.00   0.00   0.00   0.00   0.00   0.00   0.00   0.00   0.00      0      0      0       0       0
 1990 191     7     4    0.0      0   0.00      0      0      0      0      0      0    0.0  0.000      0      0  0.000  0.000  0.000  0.000   0.00   0.00   0.00      0      0      0.0   0.00   0.00   0.03   0.00   0.00   0.00   0.00   0.00   0.00   0.00   0.00   0.00   0.00      0      0      0       0       0
 1990 192     8     5    0.0      0   0.00      0      0      0      0      0      0    0.0  0.000      0      0  0.000  0.000  0.000  0.000   0.00   0.00   0.00      0      0      0.0   0.00   0.00   0.03   0.00   0.00   0.00   0.00   0.00   0.00   0.00   0.00   0.00   0.00      0      0      0       0       0
 1990 193     9     6    0.0      0   0.00      0      0      0      0      0      0    0.0  0.000      0      0  0.000  0.000  0.000  0.000   0.00   0.00   0.00      0      0      0.0   0.00   0.00   0.03   0.00   0.00   0.00   0.00   0.00   0.00   0.00   0.00   0.00   0.00      0      0      0       0       0
 1990 194    10     7    0.0      0   0.00      0      0      0      0      0      0    0.0  0.000      0      0  0.000  0.000  0.000  0.000   0.00   0.00   0.00      0      0      0.0   0.00   0.00   0.03   0.00   0.00   0.00   0.00   0.00   0.00   0.00   0.00   0.00   0.00      0      0      0       0       0
 1990 195    11     8    0.0      0   0.00      0      0      0      0      0      0    0.0  0.000      0      0  0.000  0.000  0.000  0.000   0.00   0.00   0.00      0      0      0.0   0.00   0.00   0.03   0.00   0.00   0.00   0.00   0.00   0.00   0.00   0.00   0.00   0.00      0      0      0       0       0
 1990 196    12     9    0.0      0   0.00      0      0      0      0      0      0    0.0  0.000      0      0  0.000  0.000  0.000  0.000   0.00   0.00   0.00      0      0      0.0   0.00   0.00   0.03   0.00   0.00   0.00   0.00   0.00   0.00   0.00   0.00   0.00   0.00      0      0      0       0       0
 1990 197    13    10    0.0      0   0.00      0      0      0      0      0      0    0.0  0.000      0      0  0.000  0.000  0.000  0.000   0.00   0.00   0.00      0      0      0.0   0.00   0.00   0.03   0.00   0.00   0.00   0.00   0.00   0.00   0.00   0.00   0.00   0.00      0      0      0       0       0
 1990 198    14    11    0.0      0   0.00      0      0      0      0      0      0    0.0  0.000      0      0  0.000  0.000  0.000  0.000   0.00   0.00   0.00      0      0      0.0   0.00   0.00   0.04   0.00   0.00   0.00   0.00   0.00   0.00   0.00   0.00   0.00   0.00      0      0      0       0       0
 1990 199    15    12    0.0      0   0.00      0      0      0      0      0      0    0.0  0.000      0      0  0.000  0.000  0.000  0.000   0.00   0.00   0.00      0      0      0.0   0.00   0.00   0.04   0.00   0.00   0.00   0.00   0.00   0.00   0.00   0.00   0.00   0.00      0      0      0       0       0
 1990 200    16    13    0.0      0   0.00      0      0      0      0      0      0    0.0  0.000      0      0  0.000  0.000  0.000  0.000   0.00   0.00   0.00      0      0      0.0   0.00   0.00   0.04   0.00   0.00   0.00   0.00   0.00   0.00   0.00   0.00   0.00   0.00      0      0      0       0       0
 1990 201    17    14    0.0      0   0.00      0      0      0      0      0      0    0.0  0.000      0      0  0.000  0.000  0.000  0.000   0.00   0.00   0.00      0      0      0.0   0.00   0.00   0.04   0.00   0.00   0.00   0.00   0.00   0.00   0.00   0.00   0.00   0.00      0      0      0       0       0
 1990 202    18    15    0.0      0   0.00      0      0      0      0      0      0    0.0  0.000      0      0  0.000  0.000  0.000  0.000   0.00   0.00   0.00      0      0      0.0   0.00   0.00   0.04   0.00   0.00   0.00   0.00   0.00   0.00   0.00   0.00   0.00   0.00      0      0      0       0       0
 1990 203    19    16    0.0      0   0.00      0      0      0      0      0      0    0.0  0.000      0      0  0.000  0.000  0.000  0.000   0.00   0.00   0.00      0      0      0.0   0.00   0.00   0.04   0.00   0.00   0.00   0.00   0.00   0.00   0.00   0.00   0.00   0.00      0      0      0       0       0
 1990 204    20    17    0.0      0   0.00      0      0      0      0      0      0    0.0  0.000      0      0  0.000  0.000  0.000  0.000   0.00   0.00   0.00      0      0      0.0   0.00   0.00   0.04   0.00   0.00   0.00   0.00   0.00   0.00   0.00   0.00   0.00   0.00      0      0      0       0       0
 1990 205    21    18    0.0      0   0.00      0      0      0      0      0      0    0.0  0.000      0      0  0.000  0.000  0.000  0.000   0.00   0.00   0.00      0      0      0.0   0.00   0.00   0.04   0.00   0.00   0.00   0.00   0.00   0.00   0.00   0.00   0.00   0.00      0      0      0       0       0
 1990 206    22    19    0.0      0   0.00      0      0      0      0      0      0    0.0  0.000      0      0  0.000  0.000  0.000  0.000   0.00   0.00   0.00      0      0      0.0   0.00   0.00   0.04   0.00   0.00   0.00   0.00   0.00   0.00   0.00   0.00   0.00   0.00      0      0      0       0       0
 1990 207    23    20    0.0      0   0.00      0      0      0      0      0      0    0.0  0.000      0      0  0.000  0.000  0.000  0.000   0.00   0.00   0.00      0      0      0.0   0.00   0.00   0.05   0.00   0.00   0.00   0.00   0.00   0.00   0.00   0.00   0.00   0.00      0      0      0       0       0
 1990 208    24    21    0.0      0   0.00      0      0      0      0      0      0    0.0  0.000      0      0  0.000  0.000  0.000  0.000   0.00   0.00   0.00      0      0      0.0   0.00   0.00   0.05   0.00   0.00   0.00   0.00   0.00   0.00   0.00   0.00   0.00   0.00      0      0      0       0       0
 1990 209    25    22    0.0      0   0.00      0      0      0      0      0      0    0.0  0.000      0      0  0.000  0.000  0.000  0.000   0.00   0.00   0.00      0      0      0.0   0.00   0.00   0.05   0.00   0.00   0.00   0.00   0.00   0.00   0.00   0.00   0.00   0.00      0      0      0       0       0
 1990 210    26    23    0.0      0   0.00      0      0      0      0      0      0    0.0  0.000      0      0  0.000  0.000  0.000  0.000   0.00   0.00   0.00      0      0      0.0   0.00   0.00   0.05   0.00   0.00   0.00   0.00   0.00   0.00   0.00   0.00   0.00   0.00      0      0      0       0       0
 1990 211    27    24    0.0      0   0.00      0      0      0      0      0      0    0.0  0.000      0      0  0.000  0.000  0.000  0.000   0.00   0.00   0.00      0      0      0.0   0.00   0.00   0.05   0.00   0.00   0.00   0.00   0.00   0.00   0.00   0.00   0.00   0.00      0      0      0       0       0
 1990 212    28    25    0.0      0   0.00      0      0      0      0      0      0    0.0  0.000      0      0  0.000  0.000  0.000  0.000   0.00   0.00   0.00      0      0      0.0   0.00   0.00   0.05   0.00   0.00   0.00   0.00   0.00   0.00   0.00   0.00   0.00   0.00      0      0      0       0       0
 1990 213    29    26    0.0      0   0.00      0      0      0      0      0      0    0.0  0.000      0      0  0.000  0.000  0.000  0.000   0.00   0.00   0.00      0      0      0.0   0.00   0.00   0.06   0.00   0.00   0.00   0.00   0.00   0.00   0.00   0.00   0.00   0.00      0      0      0       0       0
 1990 214    30    27    0.0      0   0.00      0      0      0      0      0      0    0.0  0.000      0      0  0.000  0.000  0.000  0.000   0.00   0.00   0.00      0      0      0.0   0.00   0.00   0.06   0.00   0.00   0.00   0.00   0.00   0.00   0.00   0.00   0.00   0.00      0      0      0       0       0
 1990 215    31    28    0.0      0   0.00      0      0      0      0      0      0    0.0  0.000      0      0  0.000  0.000  0.000  0.000   0.00   0.00   0.00      0      0      0.0   0.00   0.00   0.07   0.00   0.00   0.00   0.00   0.00   0.00   0.00   0.00   0.00   0.00      0      0      0       0       0
 1990 216    32    29    0.0      0   0.00      0      0      0      0      0      0    0.0  0.000      0      0  0.000  0.000  0.000  0.000   0.00   0.00   0.00      0      0      0.0   0.00   0.00   0.08   0.00   0.00   0.00   0.00   0.00   0.00   0.00   0.00   0.00   0.00      0      0      0       0       0
 1990 217    33    30    0.0      0   0.00      0      0      0      0      0      0    0.0  0.000      0      0  0.000  0.000  0.000  0.000   0.00   0.00   0.00      0      0      0.0   0.00   0.00   0.10   0.00   0.00   0.00   0.00   0.00   0.00   0.00   0.00   0.00   0.00      0      0      0       0       0
 1990 218    34    31    0.0      0   0.00      0      0      0      0      0      0    0.0  0.000      0      0  0.000  0.000  0.000  0.000   0.00   0.00   0.00      0      0      0.0   0.00   0.00   0.12   0.00   0.00   0.00   0.00   0.00   0.00   0.00   0.00   0.00   0.00      0      0      0       0       0
 1990 219    35    32    1.0      1   0.00     14     14      0     14     28      0    0.0  0.000      0      0  0.000  0.000  0.012  0.000   4.40   0.00   0.00      0      0     23.8   0.00   0.00   0.13   0.28   0.09   0.00   0.00   0.00   0.00   0.00   0.00   0.00   0.00      0      0      0       0       0
 1990 220    36    33    2.0      1   0.01     14     14      0     14     28      0    0.0  0.000      0      0  0.000  0.193  0.015  0.000   4.52   0.00   0.00      0      0     39.4   0.00   0.00   0.14   0.28   0.10   0.00   0.00   0.00   0.00   0.00   0.00   0.00   0.00      0      0      0       0       0
 1990 221    37    34    2.0      1   0.01     14     14      0     15     28      0    0.0  0.000      0      0  0.263  0.509  0.000  0.000   4.50   0.00   0.00      0      0     45.9   0.00   0.00   0.14   0.27   0.11   0.00   0.00   0.00   0.00   0.00   0.00   0.00   0.00      0      0      0       0       0
 1990 222    38    35    2.0      1   0.01     14     14      0     15     28      0    0.0  0.000      0      0  0.338  0.559  0.000  0.000   4.48   0.00   0.00      0      0     52.2   0.00   0.00   0.15   0.27   0.12   0.00   0.00   0.00   0.00   0.00   0.00   0.00   0.00      0      0      0       0       0
 1990 223    39    36    3.0      1   0.01     14     14      0     16     28      0    0.0  0.000      0      0  0.441  0.628  0.000  0.000   4.48   0.00   0.00      0      0     61.3   0.00   0.00   0.16   0.27   0.13   0.00   0.00   0.00   0.00   0.00   0.00   0.00   0.00      0      0      0       0       0
 1990 224    40    37    3.0      1   0.01     14     14      0     16     28      0    0.0  0.000      0      0  0.489  0.660  0.000  0.000   4.48   0.00   0.00      0      0     70.1   0.00   0.00   0.18   0.27   0.14   0.00   0.00   0.00   0.00   0.00   0.00   0.00   0.00      0      0      0       0       0
 1990 225    41    38    4.0      1   0.01     14     14      0     17     28      0    0.0  0.000      0      0  0.486  0.658  0.000  0.000   4.48   0.00   0.00      0      0    103.3   0.00   0.00   0.19   0.27   0.14   0.00   0.00   0.00   0.00   0.00   0.00   0.00   0.00      0      0      0       0       0
 1990 226    42    39    4.0      1   0.03     14     14      0     17     28      0    0.0  0.000      0      0  0.000  0.294  0.000  0.000   4.48   0.00   0.00      0      0    182.7   0.00   0.00   0.20   0.26   0.15   0.01   0.00   0.00   0.00   0.00   0.00   0.00   0.00      0      0      0       0       0
 1990 227    43    40    4.0      1   0.03     14     14      0     18     28      0    0.0  0.000      0      0  0.460  0.640  0.000  0.000   4.33   0.00   0.00      0      0    195.8   0.00   0.00   0.21   0.27   0.16   0.01   0.00   0.00   0.00   0.00   0.00   0.00   0.00      0      0      0       0       0
 1990 228    44    41    4.0      1   0.04     14     14      0     22     28      0    0.0  0.000      0      0  0.000  0.000  0.000  0.000   4.32   0.00   0.00      0      0    258.7   0.00   0.00   0.22   0.30   0.19   0.03   0.00   0.00   0.00   0.00   0.00   0.00   0.00      0      0      0       0       0
 1990 229    45    42    5.0      1   0.05     14     14      0     27     28      0    0.0  0.000      0      0  0.000  0.000  0.000  0.000   4.27   0.00   0.00      0      0    333.8   0.00   0.00   0.22   0.33   0.24   0.05   0.00   0.00   0.00   0.00   0.00   0.00   0.00      0      0      0       0       0
 1990 230    46    43    5.0      1   0.06     18     14      0     32     32      0    0.0  0.000      0      0  0.000  0.000  0.000  0.000   3.79   0.00   0.00      0      0    320.6   0.00   0.00   0.23   0.36   0.28   0.07   0.00   0.00   0.00   0.00   0.00   0.00   0.00      0      0      0       0       1
 1990 231    47    44    5.0      1   0.07     23     14      0     35     37      0    0.0  0.000      0      0  0.000  0.000  0.000  0.000   3.65   0.00   0.00      0      0    306.0   0.00   0.00   0.24   0.37   0.32   0.09   0.00   0.00   0.00   0.00   0.00   0.00   0.00      0      0      0       0       1
 1990 232    48    45    5.0      1   0.09     29     14      0     43     43      0    0.0  0.000      0      0  0.000  0.000  0.000  0.000   3.64   0.00   0.00      0      0    293.1   0.00   0.00   0.25   0.38   0.39   0.14   0.00   0.00   0.00   0.00   0.00   0.00   0.00      0      0      0       0       1
 1990 233    49    46    5.0      1   0.10     35     14      0     51     49      0    0.0  0.000      0      0  0.000  0.000  0.000  0.000   3.77   0.00   0.00      0      0    284.2   0.00   0.00   0.25   0.38   0.47   0.19   0.00   0.00   0.00   0.00   0.00   0.00   0.00      0      0      0       0       1
 1990 234    50    47    6.0      1   0.11     40     14      0     58     54      0    0.0  0.000      0      0  0.000  0.000  0.000  0.000   3.82   0.00   0.00      0      0    277.2   0.00   0.00   0.26   0.38   0.54   0.24   0.00   0.00   0.00   0.00   0.00   0.00   0.00      0      0      0       0       1
 1990 235    51    48    6.0      1   0.11     42     14      0     67     56      0    0.0  0.000      0      0  0.000  0.000  0.000  0.000   4.02   0.00   0.00      0      0    267.1   0.00   0.00   0.26   0.38   0.62   0.30   0.00   0.00   0.00   0.00   0.00   0.00   0.00      0      0      0       0       2
 1990 236    52    49    6.0      1   0.11     45     14      0     74     59      0    0.0  0.000      0      0  0.000  0.000  0.000  0.000   3.98   0.00   0.00      0      0    249.9   0.00   0.00   0.26   0.38   0.68   0.35   0.00   0.00   0.00   0.00   0.00   0.00   0.00      0      0      0       0       2
 1990 237    53    50    6.0      1   0.14     56     14      0     81     70      0    0.0  0.000      0      0  0.000  0.000  0.000  0.000   3.57   0.00   0.00      0      0    243.5   0.00   0.00   0.27   0.37   0.74   0.40   0.00   0.00   0.00   0.00   0.00   0.00   0.00      0      0      0       0       2
 1990 238    54    51    6.0      1   0.16     69     14      0     92     83      0    0.0  0.000      0      0  0.000  0.000  0.000  0.000   3.47   0.00   0.00      0      0    236.2   0.00   0.00   0.29   0.37   0.84   0.48   0.00   0.00   0.00   0.00   0.00   0.00   0.00      0      0      0       0       3
 1990 239    55    52    6.0      1   0.17     74     14      0     97     88      0    0.0  0.000      0      0  0.000  0.000  0.000  0.000   3.92   0.00   0.00      0      0    233.3   0.00   0.00   0.29   0.38   0.87   0.52   0.00   0.00   0.00   0.00   0.00   0.00   0.00      0      0      0       0       3
 1990 240    56    53    6.0      1   0.14     74     14      0    100     88      0    0.0  0.000      0      0  0.000  0.000  0.000  0.000   4.14   0.00   0.00      0      0    196.0   0.00   0.00   0.29   0.39   0.90   0.54   0.00   0.00   0.00   0.00   0.00   0.00   0.00      0      0      0       0       4
 1990 241    57    54    6.0      1   0.07     76     14      0    108     90      0    0.0  0.000      0      0  0.000  0.000  0.000  0.000   4.05   0.00   0.00      0      0     94.4   0.00   0.00   0.29   0.41   0.95   0.60   0.00   0.00   0.00   0.00   0.00   0.00   0.00      0      0      0       0       4
 1990 242    58    55    6.0      1   0.08     83     14      0    114     97      0    0.0  0.000      0      0  0.000  0.000  0.000  0.000   3.73   0.00   0.00      0      0     93.7   0.00   0.00   0.30   0.43   1.00   0.64   0.00   0.00   0.00   0.00   0.00   0.00   0.00      0      0      0       0       4
 1990 243    59    56    7.0      1   0.08     84     14      0    114     98      0    0.0  0.000      0      0  0.000  0.000  0.010  0.000   4.08   0.00   0.00      0      0     94.7   0.00   0.00   0.30   0.43   0.99   0.64   0.00   0.00   0.00   0.00   0.00   0.00   0.00      0      0      0       0       4
 1990 244    60    57    7.0      1   0.06     84     14      0    114     98      0    0.0  0.000      0      0  0.000  0.000  0.000  0.000   4.12   0.00   0.00      0      0     69.1   0.00   0.00   0.30   0.43   1.00   0.65   0.00   0.00   0.00   0.00   0.00   0.00   0.00      0      0      0       0       5
 1990 245    61    58    7.0      1   0.02     85     14      0    115     99      0    0.0  0.000      0      0  0.000  0.000  0.000  0.000   4.11   0.00   0.00      0      0     21.7   0.00   0.00   0.30   0.43   1.00   0.65   0.00   0.00   0.00   0.00   0.00   0.00   0.00      0      0      0       0       5
 1990 246    62    59    7.0      1   0.02     89     14      0    115    103      0    0.0  0.000      0      0  0.000  0.000  0.000  0.000   3.94   0.00   0.00      0      0     26.1   0.00   0.00   0.30   0.43   1.00   0.65   0.00   0.00   0.00   0.00   0.00   0.00   0.00      0      0      0       0       5
 1990 247    63    60    7.0      1   0.03     95     14      0    115    109      0    0.0  0.000      0      0  0.000  0.000  0.000  0.000   3.89   0.00   0.00      0      0     35.8   0.00   0.00   0.30   0.43   0.99   0.65   0.00   0.00   0.00   0.00   0.00   0.00   0.00      0      0      0       0       6
 1990 248    64    61    7.0      1   0.05     97     14      0    115    111      0    0.0  0.000      0      0  0.000  0.000  0.000  0.000   4.02   0.00   0.00      0      0     55.1   0.00   0.00   0.31   0.42   0.99   0.65   0.00   0.00   0.00   0.00   0.00   0.00   0.00      0      0      0       0       7
 1990 249    65    62    7.0      1   0.06     99     14      0    115    113      0    0.0  0.000      0      0  0.000  0.000  0.000  0.000   3.98   0.00   0.00      0      0     58.9   0.00   0.00   0.31   0.42   0.99   0.65   0.00   0.00   0.00   0.00   0.00   0.00   0.00      0      0      0       0       7
 1990 250    66    63    7.0      1   0.06    102     14      0    115    116      0    0.0  0.000      0      0  0.000  0.000  0.000  0.000   3.95   0.00   0.00      0      0     63.1   0.00   0.00   0.32   0.42   0.99   0.65   0.00   0.00   0.00   0.00   0.00   0.00   0.00      0      0      0       0       8
 1990 251    67    64    7.0      1   0.07    105     14      0    115    119      0    0.0  0.000      0      0  0.000  0.000  0.000  0.000   3.96   0.00   0.00      0      0     66.3   0.00   0.00   0.32   0.42   0.99   0.65   0.00   0.00   0.00   0.00   0.00   0.00   0.00      0      0      0       0       8
 1990 252    68    65    8.0      1   0.10    121     14      0    117    135      0    0.0  0.000      0      0  0.000  0.000  0.000  0.000   3.52   0.00   0.00      0      0     84.3   0.00   0.00   0.33   0.42   1.00   0.67   0.00   0.00   0.00   0.00   0.00   0.00   0.00      0      0      0       0       9
 1990 253    69    66    8.0      1   0.14    140     14      0    120    154      0    0.0  0.000      0      0  0.000  0.000  0.000  0.011   3.51   0.00   0.00      0      0     98.6   0.00   0.00   0.35   0.43   1.02   0.69   0.00   0.00   0.00   0.00   0.00   0.00   0.00      0      0      0       0       9
 1990 254    70    67    8.0      1   0.17    156     14      0    122    170      0    0.0  0.000      0      0  0.000  0.000  0.000  0.242   3.61   0.00   0.00      0      0    107.3   0.00   0.00   0.36   0.42   1.00   0.69   0.01   0.00   0.00   0.00   0.00   0.00   0.00      0      0      0       0      10
 1990 255    71    68    8.0      1   0.20    173     14      0    125    187      0    0.0  0.000      0      0  0.000  0.000  0.000  0.166   3.60   0.00   0.00      0      0    114.0   0.00   0.00   0.36   0.41   1.01   0.70   0.01   0.00   0.00   0.00   0.00   0.00   0.00      0      0      0       0      11
 1990 256    72    69    8.0      1   0.20    187     14      0    127    201      0    0.0  0.000      0      0  0.000  0.000  0.000  0.101   3.71   0.00   0.00      0      0    105.6   0.00   0.00   0.36   0.41   1.01   0.71   0.01   0.00   0.00   0.00   0.00   0.00   0.00      0      0      0       0      11
 1990 257    73    70    8.0      1   0.14    207     14      0    130    221      0    0.0  0.000      0      0  0.000  0.000  0.000  0.034   3.60   0.00   0.00      0      0     68.8   0.00   0.00   0.37   0.42   1.03   0.73   0.01   0.00   0.00   0.00   0.00   0.00   0.00      0      0      0       0      12
 1990 258    74    71    8.0      1   0.15    218     14      0    144    232      0    0.0  0.000      0      0  0.000  0.000  0.000  0.000   3.77   0.00   0.00      0      0     68.5   0.00   0.00   0.37   0.44   1.12   0.83   0.03   0.00   0.00   0.00   0.00   0.00   0.00      0      0      0       0      13
 1990 259    75    72    9.0      1   0.18    240     14      0    154    254      0    0.0  0.000      0      0  0.000  0.000  0.000  0.000   3.60   0.00   0.00      0      0     76.7   0.00   0.00   0.38   0.47   1.17   0.90   0.05   0.00   0.00   0.00   0.00   0.00   0.00      0      0      0       0      13
 1990 260    76    73    9.0      1   0.21    259     14      0    158    273      0    0.0  0.000      0      0  0.000  0.000  0.000  0.000   3.65   0.00   0.00      0      0     82.5   0.00   0.00   0.39   0.47   1.20   0.93   0.06   0.00   0.00   0.00   0.00   0.00   0.00      0      0      0       0      14
 1990 261    77    74    9.0      1   0.24    279     14      0    162    293      0    0.0  0.000      0      0  0.000  0.000  0.000  0.000   3.64   0.00   0.00      0      0     87.7   0.00   0.00   0.40   0.45   1.15   0.90   0.06   0.00   0.00   0.00   0.00   0.00   0.00      0      0      0       0      15
 1990 262    78    75    9.0      2   0.28    279     14      0    185    293      0    0.0  0.000      0      0  0.000  0.000  0.000  0.000   3.90   0.00   0.00      0      0    100.7   0.00   0.00   0.41   0.46   1.24   1.04   0.11   0.00   0.00   0.00   0.00   0.00   0.00      0      0      0       0      16
 1990 263    79    76    9.0      2   0.31    298     14      0    188    312      0    0.0  0.000      0      0  0.000  0.000  0.000  0.129   3.67   0.00   0.00      0      0    104.6   0.00   0.00   0.42   0.46   1.23   1.04   0.11   0.00   0.00   0.00   0.00   0.00   0.00      0      0      0       0      16
 1990 264    80    77   10.0      2   0.34    318     14      0    191    332      0    0.0  0.000      0      0  0.000  0.000  0.000  0.065   3.58   0.00   0.00      0      0    108.3   0.00   0.00   0.43   0.46   1.23   1.06   0.12   0.00   0.00   0.00   0.00   0.00   0.00      0      0      0       0      17
 1990 265    81    78   10.0      2   0.39    346     14      0    227    360      0    0.0  0.000      0      0  0.000  0.000  0.000  0.003   3.79   0.00   0.00      0      0    112.2   0.00   0.00   0.44   0.51   1.41   1.30   0.21   0.00   0.00   0.00   0.00   0.00   0.00      0      0      0       0      18
 1990 266    82    79   10.0      3   0.39    354     14      0    251    368      0    0.0  0.000      0      0  0.000  0.000  0.022  0.000   3.75   0.00   0.00      0      0    111.3   0.00   0.00   0.44   0.55   1.53   1.45   0.27   0.00   0.00   0.00   0.00   0.00   0.00      0      0      0       0      19
 1990 267    83    80   10.0      3   0.38    364     14      0    283    378      0    0.0  0.000      0      0  0.000  0.000  0.022  0.000   3.66   0.00   0.00      0      0    103.7   0.00   0.00   0.44   0.61   1.68   1.66   0.35   0.00   0.00   0.00   0.00   0.00   0.00      0      0      0       0      20
 1990 268    84    81   10.0      3   0.36    377     14      0    319    391      0    0.0  0.000      0      0  0.000  0.000  0.022  0.000   3.64   0.00   0.00      0      0     96.5   0.00   0.00   0.45   0.68   1.86   1.90   0.45   0.00   0.00   0.00   0.00   0.00   0.00      0      0      0       0      21
 1990 269    85    82   10.0      3   0.40    404     14      0    369    418      0    0.0  0.000      0      0  0.000  0.000  0.022  0.000   3.56   0.00   0.00      0      0     99.4   0.00   0.00   0.46   0.79   2.09   2.22   0.59   0.00   0.00   0.00   0.00   0.00   0.00      0      0      0       0      23
 1990 270    86    83   10.0      3   0.47    450     14      0    408    464      0    0.0  0.000      0      0  0.000  0.000  0.022  0.000   3.53   0.00   0.00      0      0    104.1   0.00   0.00   0.47   0.87   2.26   2.46   0.69   0.01   0.00   0.00   0.00   0.00   0.00      0      0      0       0      25
 1990 271    87    84   11.0      3   0.53    491     15      0    408    506      0    0.0  0.000      0      0  0.000  0.000  0.022  0.000   3.50   0.00   0.00      0      0    107.3   0.00   0.00   0.48   0.87   2.25   2.45   0.69   0.01   0.00   0.00   0.00   0.00   0.00      0      0      0       0      27
 1990 272    88    85   11.0      3   0.59    536     16      0    455    552      0    0.0  0.000      0      0  0.000  0.000  0.022  0.000   3.48   0.00   0.00      0      0    110.1   0.00   0.00   0.49   0.97   2.45   2.73   0.81   0.04   0.00   0.00   0.00   0.00   0.00      0      0      0       0      29
 1990 273    89    86   11.0      3   0.66    586     17      0    506    603      0    0.0  0.000      0      0  0.000  0.000  0.022  0.000   3.45   0.00   0.00      0      0    112.4   0.00   0.00   0.50   1.09   2.67   3.03   0.93   0.07   0.00   0.00   0.00   0.00   0.00      0      0      0       0      31
 1990 274    90    87   11.0      3   0.76    660     21      0    561    681      0    0.0  0.000      0      0  0.000  0.000  0.022  0.000   3.41   0.00   0.00      0      0    115.0   0.00   0.00   0.52   1.22   2.91   3.36   1.07   0.12   0.00   0.00   0.00   0.00   0.00      0      0      0       0      34
 1990 275    91    88   12.0      3   0.86    734     26      0    638    759      0    0.0  0.000      0      0  0.000  0.000  0.022  0.000   3.38   0.00   0.00      0      0    116.7   0.00   0.00   0.53   1.40   3.23   3.82   1.26   0.20   0.00   0.00   0.00   0.00   0.00      0      0      0       0      36
 1990 276    92    89   12.0      3   0.97    824     34      0    703    858      0    0.0  0.000      0      0  0.000  0.000  0.022  0.000   3.34   0.00   0.00      0      0    118.0   0.00   0.00   0.55   1.55   3.49   4.00   1.42   0.29   0.00   0.00   0.00   0.00   0.00      0      0      0       0      40
 1990 277    93    90   12.0      3   1.13    947     49      0    734    995      0    0.0  0.000      0      0  0.000  0.000  0.022  0.000   3.29   0.00   0.00      0      0    119.1   0.00   0.00   0.57   1.62   3.62   4.00   1.50   0.34   0.00   0.00   0.00   0.00   0.00      0      0      0       0      43
 1990 278    94    91   13.0      3   1.21   1018     59      0    735   1077      0    0.0  0.000      0      0  0.000  0.000  0.022  0.000   3.26   0.00   0.00      0      0    119.2   0.00   0.00   0.58   1.62   3.62   4.00   1.50   0.34   0.00   0.00   0.00   0.00   0.00      0      0      0       0      47
 1990 279    95    92   13.0      3   1.33   1113     76      0    738   1189      0    0.0  0.000      0      0  0.000  0.000  0.022  0.000   3.22   0.00   0.00      0      0    119.3   0.00   0.00   0.59   1.62   3.62   4.00   1.51   0.35   0.00   0.00   0.00   0.00   0.00      0      0      0       0      51
 1990 280    96    93   13.0      3   1.41   1187     93      0    739   1280      0    0.0  0.000      0      0  0.000  0.000  0.022  0.000   3.19   0.00   0.00      0      0    119.1   0.00   0.00   0.61   1.62   3.62   4.00   1.51   0.36   0.00   0.00   0.00   0.00   0.00      0      0      0       0      54
 1990 281    97    94   13.0      3   1.49   1256    110      0    776   1366      0    0.0  0.000      0      0  0.000  0.000  0.022  0.135   3.16   0.00   0.00      0      0    118.9   0.00   0.00   0.62   1.51   3.51   3.96   1.52   0.43   0.00   0.00   0.00   0.00   0.00      0      0      0       0      58
 1990 282    98    95   14.0      3   1.57   1322    128      0    903   1450      0    0.0  0.000      0      0  0.000  0.000  0.022  0.056   3.14   0.00   0.00      0      0    118.6   0.00   0.00   0.63   1.46   3.71   4.00   1.80   0.71   0.01   0.00   0.00   0.00   0.00      0      0      0       0      62
 1990 283    99    96   14.0      3   1.65   1397    151      0   1009   1549      0    0.0  0.000      0      0  0.000  0.000  0.022  0.022   3.11   0.00   0.00      0      0    118.2   0.00   0.00   0.64   1.42   3.89   4.00   2.05   0.95   0.03   0.00   0.00   0.00   0.00      0      0      0       0      66
 1990 284   100    97   14.0      3   1.75   1486    183      0   1014   1668      0    0.0  0.000      0      0  0.000  0.000  0.022  0.011   3.08   0.00   0.00      0      0    117.8   0.00   0.00   0.65   1.39   3.83   3.97   2.03   0.95   0.03   0.00   0.00   0.00   0.00      0      0      0       0      71
 1990 285   101    98   14.0      3   1.82   1549    207      0   1169   1756      0    0.0  0.000      0      0  0.000  0.000  0.022  0.058   3.06   0.00   0.00      0      0    117.4   0.00   0.00   0.66   1.32   3.85   4.00   2.34   1.31   0.08   0.00   0.00   0.00   0.00      0      0      0       0      76
 1990 286   102    99   14.0      3   1.88   1608    231      0   1334   1838      0    0.0  0.000      0      0  0.000  0.000  0.022  0.044   3.04   0.00   0.00      0      0    117.0   0.00   0.00   0.66   1.27   3.95   4.00   2.75   1.74   0.14   0.00   0.00   0.00   0.00      0      0      0       0      82
 1990 287   103   100   15.0      3   1.97   1688    267      0   1473   1955      0    0.0  0.000      0      0  0.000  0.000  0.022  0.028   3.02   0.00   0.00      0      0    116.5   0.00   0.00   0.67   1.25   4.00   4.00   3.12   2.13   0.21   0.00   0.00   0.00   0.00      0      0      0       0      89
 1990 288   104   101   15.0      3   2.03   1745    295      0   1637   2041      0    0.0  0.000      0      0  0.000  0.000  0.022  0.009   3.00   0.00   0.00      0      0    116.1   0.00   0.00   0.68   1.25   4.00   4.00   3.60   2.62   0.30   0.00   0.00   0.00   0.00      0      0      0       0      96
 1990 289   105   102   15.0      3   2.06   1793    320      0   1816   2113      0    0.0  0.000      0      0  0.000  0.000  0.022  0.005   2.98   0.00   0.00      0      0    114.8   0.00   0.00   0.69   1.25   4.00   4.00   4.00   3.21   0.42   0.00   0.00   0.00   0.00      0      0      0       0     105
 1990 290   106   103   15.0      3   2.12   1858    355      0   1886   2213      0    0.0  0.000      0      0  0.000  0.000  0.022  0.006   2.97   0.00   0.00      0      0    114.4   0.00   0.00   0.70   1.24   4.00   4.00   4.00   3.44   0.47   0.00   0.00   0.00   0.00      0      0      0       0     114
 1990 291   107   104   15.0      3   2.23   1961    418      0   2005   2379      0    0.0  0.000      0      0  0.000  0.000  0.022  0.006   2.94   0.00   0.00      0      0    113.8   0.00   0.00   0.71   1.25   4.00   4.00   4.00   3.84   0.58   0.00   0.00   0.00   0.00      0      0      0       0     123
 1990 292   108   105   16.0      3   2.34   2068    490      0   2057   2558      0    0.0  0.000      0      0  0.000  0.000  0.022  0.005   2.90   0.00   0.00      0      0    113.3   0.00   0.00   0.72   1.24   3.99   4.00   4.00   4.00   0.64   0.00   0.00   0.00   0.00      0      0      0       0     133
 1990 293   109   106   16.0      3   2.45   2177    570      0   2098   2747      0    0.0  0.000      0      0  0.000  0.000  0.022  0.005   2.87   0.00   0.00      0      0    112.7   0.00   0.00   0.73   1.24   3.98   4.00   4.00   4.00   0.69   0.00   0.00   0.00   0.00      0      0      0       0     143
 1990 294   110   107   16.0      3   2.56   2281    654      0   2193   2936      0    0.0  0.000      0      0  0.000  0.000  0.022  0.003   2.84   0.00   0.00      0      0    112.1   0.00   0.00   0.75   1.25   3.98   4.00   4.00   4.00   0.85   0.00   0.00   0.00   0.00      0      0      0       0     154
 1990 295   111   108   17.0      3   2.66   2385    745      0   2332   3131      0    0.0  0.000      0      0  0.000  0.000  0.022  0.000   2.80   0.00   0.00      0      0    111.6   0.00   0.00   0.76   1.29   4.00   4.00   4.00   4.00   1.11   0.00   0.00   0.00   0.00      0      0      0       0     165
 1990 296   112   109   17.0      3   2.77   2494    849      0   2409   3343      0    0.0  0.000      0      0  0.000  0.000  0.022  0.000   2.76   0.00   0.00      0      0    111.0   0.00   0.00   0.77   1.32   4.00   4.00   4.00   4.00   1.28   0.00   0.00   0.00   0.00      0      0      0       0     176
 1990 297   113   110   17.0      3   2.86   2590    947      0   2493   3538      0    0.0  0.000      0      0  0.000  0.000  0.022  0.000   2.70   0.00   0.00      0      0    110.4   0.00   0.00   0.78   1.36   4.00   4.00   4.00   4.00   1.48   0.00   0.00   0.00   0.00      0      0      0       0     188
 1990 298   114   111   17.0      3   3.00   2738   1041      0   2494   3779      0    0.0  0.000      0      0  0.000  0.000  0.022  0.000   2.61   0.00   0.00      0      0    109.7   0.00   0.00   0.80   1.36   3.99   3.99   4.00   4.00   1.50   0.00   0.00   0.00   0.00      0      0      0       0     201
 1990 299   115   112   18.0      3   3.19   2928   1258      0   2517   4186      0    0.0  0.000      0      0  0.000  0.000  0.022  0.000   2.42   0.00   0.00      0      0    108.9   0.00   0.00   0.81   1.38   4.00   4.00   4.00   4.00   1.58   0.00   0.00   0.00   0.00      0      0      0       0     213
 1990 300   116   113   18.0      3   3.32   3064   1460      0   2523   4524      0    0.0  0.000      0      0  0.000  0.000  0.022  0.000   2.29   0.00   0.00      0      0    108.3   0.00   0.00   0.83   1.40   4.00   4.00   4.00   4.00   1.63   0.00   0.00   0.00   0.00      0      0      0       0     226
 1990 301   117   114   18.0      3   3.36   3119   1557      0   2519   4676      0    0.0  0.000      0      0  0.000  0.000  0.028  0.000   2.25   0.00   0.00      0      0    107.7   0.00   0.00   0.84   1.40   3.99   3.99   3.99   4.00   1.64   0.00   0.00   0.00   0.00      0      0      0       0     239
 1990 302   118   115   19.0      3   3.42   3189   1697      0   2518   4886      0    0.0  0.000      0      0  0.000  0.000  0.034  0.000   2.19   0.00   0.00      0      0    107.1   0.00   0.00   0.86   1.42   3.99   3.99   3.98   4.00   1.67   0.00   0.00   0.00   0.00      0      0      0       0     251
 1990 303   119   116   19.0      3   3.51   3295   1932      0   2588   5226      0    0.0  0.000      0      0  0.000  0.000  0.034  0.000   2.07   0.00   0.00      0      0    106.4   0.00   0.00   0.88   1.64   4.00   4.00   4.00   4.00   1.88   0.00   0.00   0.00   0.00      0      0      0       0     264
 1990 304   120   117   20.0      3   3.56   3368   2106      0   2706   5475      0    0.0  0.000      0      0  0.000  0.000  0.037  0.000   2.00   0.00   0.00      0      0    105.7   0.00   0.00   0.89   2.08   4.00   4.00   4.00   4.00   2.09   0.00   0.00   0.00   0.00      0      0      0       0     277
 1990 305   121   118   20.0      3   3.61   3442   2291      0   2784   5732      0    0.0  0.000      0      0  0.000  0.000  0.044  0.000   1.93   0.00   0.00      0      0    105.0   0.00   0.00   0.90   2.42   4.00   4.00   4.00   4.00   2.19   0.00   0.00   0.00   0.00      0      0      0       0     290
 1990 306   122   119   20.0      3   3.66   3512   2477      0   2833   5989      0    0.0  0.000      0      0  0.000  0.000  0.048  0.000   1.86   0.00   0.00      0      0    104.2   0.00   0.00   0.92   2.60   4.00   4.00   4.00   4.00   2.24   0.13   0.00   0.00   0.00      0      0      0       0     304
 1990 307   123   120   21.0      3   3.69   3564   2626      0   2831   6190      0    0.0  0.000      0      0  0.000  0.000  0.052  0.000   1.82   0.00   0.00      0      0    103.4   0.00   0.00   0.93   2.62   4.00   4.00   3.99   3.99   2.24   0.17   0.00   0.00   0.00      0      0      0       0     318
 1990 308   124   121   21.0      3   3.70   3606   2748      0   2933   6354      0    0.0  0.000      0      0  0.000  0.000  0.056  0.000   1.79   0.00   0.00      0      0    102.6   0.00   0.00   0.94   2.89   4.00   4.00   4.00   4.00   2.32   0.61   0.00   0.00   0.00      0      0      0       0     333
 1990 309   125   122   21.0      3   3.70   3629   2819      0   3143   6448      0    0.0  0.000      0      0  0.000  0.000  0.060  0.000   1.78   0.00   0.00      0      0    101.8   0.00   0.00   0.94   3.43   4.00   4.00   4.00   4.00   2.49   1.45   0.00   0.00   0.00      0      0      0       0     347
 1990 310   126   123   21.0      3   3.70   3665   2925      0   3221   6590      0    0.0  0.000      0      0  0.000  0.000  0.062  0.004   1.76   0.00   0.00      0      0    101.0   0.00   0.00   0.95   3.64   4.00   4.00   4.00   4.00   2.55   1.80   0.00   0.00   0.00      0      0      0       0     363
 1990 311   127   124   21.0      3   3.72   3715   3074      0   3326   6789      0    0.0  0.000      0      0  0.000  0.000  0.061  0.000   1.73   0.00   0.00      0      0    100.2   0.00   0.00   0.96   3.92   4.00   4.00   4.00   4.00   2.63   2.26   0.00   0.00   0.00      0      0      0       0     379
 1990 312   128   125   21.0      3   3.72   3748   3171      0   3323   6919      0    0.0  0.000      0      0  0.000  0.000  0.062  0.000   1.71   0.00   0.00      0      0     99.4   0.00   0.00   0.97   3.93   4.00   4.00   3.99   3.99   2.62   2.30   0.00   0.00   0.00      0      0      0       0     396
 1990 313   129   126   21.0      3   3.74   3799   3321      0   3358   7120      0    0.0  0.000      0      0  0.000  0.000  0.065  0.000   1.67   0.00   0.00      0      0     98.5   0.00   0.00   0.98   4.00   4.00   4.00   4.00   4.00   2.65   2.47   0.00   0.00   0.00      0      0      0       0     412
 1990 314   130   127   21.0      3   3.76   3852   3479      0   3435   7331      0    0.0  0.000      0      0  0.000  0.000  0.065  0.000   1.64   0.00   0.00      0      0     97.7   0.00   0.00   0.99   4.00   4.00   4.00   4.00   4.00   2.72   2.78   0.00   0.00   0.00      0      0      0       0     429
 1990 315   131   128   21.0      3   3.79   3915   3662      0   3517   7577      0    0.0  0.000      0      0  0.000  0.000  0.067  0.000   1.59   0.00   0.00      0      0     96.8   0.00   0.00   1.00   4.00   4.00   4.00   4.00   4.00   2.79   3.09   0.00   0.00   0.00      0      0      0       0     446
 1990 316   132   129   21.0      3   3.81   3967   3815      0   3511   7782      0    0.0  0.000      0      0  0.000  0.000  0.070  0.000   1.56   0.00   0.00      0      0     96.0   0.00   0.00   1.01   4.00   4.00   4.00   3.99   3.99   2.78   3.11   0.00   0.00   0.00      0      0      0       0     464
 1990 317   133   130   21.0      4   3.77   3927   3271      0   3580   8070      0    0.0  0.000    872      0  0.000  0.000  0.073  0.000   1.70   0.00   0.11      0    872     96.1   0.00   0.00   1.03   4.00   4.00   4.00   4.00   4.00   2.84   3.33   0.00   0.00   0.00      0      0      0       0     481
 1990 318   134   131   21.0      4   3.74   3882   3350      0   3574   8299      0    0.0  0.000   1067      0  0.000  0.000  0.072  0.000   1.70   0.00   0.13      0   1067     96.3   0.00   0.00   1.05   4.00   4.00   4.00   3.99   3.99   2.84   3.34   0.00   0.00   0.00      0      0      0       0     499
 1990 319   135   132   21.0      4   3.72   3835   3393      0   3562   8403      0    0.0  0.000   1175      0  0.000  0.000  0.052  0.000   1.71   0.00   0.14      0   1175     96.9   0.00   0.00   1.06   4.00   4.00   4.00   3.98   3.98   2.83   3.33   0.00   0.00   0.00      0      0      0       0     517
 1990 320   136   133   21.0      4   3.69   3786   3442      0   3627   8528      0    0.0  0.000   1299      0  0.000  0.000  0.049  0.000   1.72   0.00   0.15      0   1299     97.5   0.00   0.00   1.07   4.00   4.00   4.00   4.00   4.00   2.91   3.41   0.00   0.00   0.00      0      0      0       0     535
 1990 321   137   134   21.0      4   3.67   3736   3495      0   3791   8662      0    0.0  0.000   1431      0  0.000  0.000  0.047  0.000   1.73   0.00   0.17      0   1431     98.3   0.00   0.00   1.08   4.00   4.00   4.00   4.00   4.00   3.10   3.54   0.00   0.00   0.00      0      0      0       0     553
 1990 322   138   135   21.0      4   3.65   3682   3578      0   3895   8899      0    0.0  0.000   1638      0  0.000  0.000  0.043  0.007   1.73   0.00   0.18      0   1638     99.2   0.00   0.00   1.09   4.00   4.00   4.00   4.00   4.00   3.21   3.62   0.00   0.00   0.00      0      0      0       0     572
 1990 323   139   136   21.0      4   3.63   3625   3687      0   3946   9223      0    0.0  0.000   1911      0  0.000  0.000  0.039  0.000   1.72   0.00   0.21      0   1911    100.2   0.00   0.00   1.11   4.00   4.00   4.00   4.00   4.00   3.27   3.66   0.08   0.00   0.00      0      0      0       0     592
 1990 324   140   137   21.0      4   3.62   3564   3749      0   3936   9380      0    0.0  0.000   2066      0  0.000  0.000  0.036  0.000   1.73   0.00   0.22      0   2066    101.5   0.00   0.00   1.12   4.00   4.00   4.00   3.99   3.99   3.26   3.65   0.09   0.00   0.00      0      0      0       0     611
 1990 325   141   138   21.0      4   3.60   3500   3838      0   4058   9627      0    0.0  0.000   2289      0  0.000  0.000  0.033  0.000   1.74   0.00   0.24      0   2289    102.9   0.00   0.00   1.13   4.00   4.00   4.00   4.00   4.00   3.38   3.72   0.36   0.00   0.00      0      0      0       0     631
 1990 326   142   139   21.0      4   3.59   3434   3916      0   4175   9833      0    0.0  0.000   2483      0  0.000  0.000  0.030  0.000   1.74   0.00   0.25      0   2483    104.5   0.00   0.00   1.14   4.00   4.00   4.00   4.00   4.00   3.49   3.80   0.64   0.00   0.00      0      0      0       0     651
 1990 327   143   140   21.0      4   3.58   3364   3992      0   4312  10028      0    0.0  0.000   2672      0  0.000  0.000  0.028  0.000   1.75   0.00   0.27      0   2672    106.3   0.00   0.00   1.15   4.00   4.00   4.00   4.00   4.00   3.61   3.88   0.99   0.00   0.00      0      0      0       0     672
 1990 328   144   141   21.0      4   3.56   3292   4077      0   4392  10254      0    0.0  0.000   2885      0  0.000  0.000  0.026  0.000   1.75   0.00   0.28      0   2885    108.3   0.00   0.00   1.16   4.00   4.00   4.00   4.00   4.00   3.68   3.92   1.21   0.00   0.00      0      0      0       0     694
 1990 329   145   142   21.0      5   3.56   3292   4077    280   4400  10534   3730    7.5  0.027   3164      7  0.000  0.000  0.008  0.000   1.69   8.84   0.30      0   3164    108.2   0.00   0.00   1.17   4.00   4.00   4.00   4.00   4.00   3.69   3.92   1.27   0.00   0.00      0      0      0       0     716
 1990 330   146   143   21.0      5   3.55   3292   4077    511   4432  10764   3730   13.7  0.047   3395      7  0.000  0.000  0.024  0.000   1.65  15.04   0.32      0   3395    107.8   0.00   0.00   1.18   4.00   4.00   4.00   4.00   4.00   3.72   3.94   1.38   0.00   0.00      0      0      0       0     738
 1990 331   147   144   21.0      5   3.54   3292   4077    633   4526  10887   3730   17.0  0.058   3518      7  0.000  0.000  0.033  0.000   1.63  18.00   0.32      0   3518    107.4   0.00   0.00   1.18   4.00   4.00   4.00   4.00   4.00   3.81   3.99   1.62   0.00   0.00      0      0      0       0     760
 1990 332   148   145   21.0      5   3.52   3292   4077    784   4615  11037   3730   21.0  0.071   3668      7  0.000  0.000  0.034  0.000   1.60  21.36   0.33      0   3668    106.9   0.00   0.00   1.19   4.00   4.00   4.00   4.00   4.00   3.89   4.00   1.83   0.00   0.00      0      0      0       0     782
 1990 333   149   146   21.0      5   3.51   3292   4077    998   4688  11252   3730   26.8  0.089   3883      7  0.000  0.000  0.035  0.000   1.56  25.71   0.35      0   3883    106.5   0.00   0.00   1.20   4.00   4.00   4.00   4.00   4.00   3.96   4.00   2.00   0.00   0.00      0      0      0       0     805
 1990 334   150   147   21.0      5   3.49   3292   4077   1241   4675  11495   3730   33.3  0.108   4125      7  0.000  0.000  0.041  0.000   1.52  30.07   0.36      0   4125    105.9   0.00   0.00   1.21   4.00   4.00   4.00   3.99   3.99   3.95   3.99   2.01   0.00   0.00      0      0      0       0     829
 1990 335   151   148   21.0      5   3.47   3292   4077   1476   4704  11730   3730   39.6  0.126   4361      7  0.000  0.000  0.048  0.000   1.48  33.85   0.37      0   4361    105.3   0.00   0.00   1.21   4.00   4.00   4.00   4.00   4.00   3.98   4.00   2.08   0.00   0.00      0      0      0       0     852
 1990 336   152   149   21.0      5   3.44   3292   4051   1672   4681  11899   3730   44.8  0.140   4556      7  0.000  0.000  0.056  0.000   1.45  36.69   0.38      0   4556    104.5   0.00   0.00   1.21   4.00   4.00   4.00   4.00   4.00   3.98   4.00   2.08   0.00   0.00      0      0      0       0     876
 1990 337   153   150   21.0      5   3.42   3292   4077   1830   4758  12084   3730   49.1  0.151   4714      7  0.000  0.000  0.063  0.000   1.42  38.81   0.39      0   4714    103.7   0.00   0.00   1.22   4.00   4.00   4.00   4.00   4.00   4.00   4.00   2.18   0.00   0.00      0      0      0       0     899
 1990 338   154   151   21.0      5   3.39   3292   4077   2036   4817  12289   3730   54.6  0.166   4920      7  0.000  0.000  0.063  0.000   1.38  41.37   0.40      0   4920    102.9   0.00   0.00   1.23   4.00   4.00   4.00   4.00   4.00   4.00   4.00   2.23   0.00   0.00      0      0      0       0     923
 1990 339   155   152   21.0      5   3.36   3292   4077   2315   4801  12569   3730   62.1  0.184   5200      7  0.000  0.000  0.068  0.000   1.33  44.52   0.41      0   5200    102.0   0.00   0.00   1.24   4.00   4.00   4.00   3.99   3.99   3.99   3.99   2.22   0.00   0.00      0      0      0       0     947
 1990 340   156   153   21.0      5   3.33   3292   4077   2573   4789  12827   3730   69.0  0.201   5458      7  0.000  0.000  0.079  0.000   1.29  47.15   0.43      0   5458    101.0   0.00   0.00   1.25   4.00   4.00   4.00   3.99   3.99   3.98   3.97   2.22   0.00   0.00      0      0      0       0     971
 1990 341   157   154   21.0      5   3.29   3292   4077   2810   4827  13064   3730   75.3  0.215   5695      7  0.000  0.000  0.088  0.000   1.25  49.34   0.44      0   5695     99.9   0.00   0.00   1.25   4.00   4.00   4.00   4.00   4.00   4.00   4.00   2.23   0.00   0.00      0      0      0       0     995
 1990 342   158   155   21.0      5   3.25   3292   4077   2999   4891  13253   3730   80.4  0.226   5883      7  0.000  0.000  0.098  0.062   1.22  50.97   0.44      0   5883     98.7   0.00   0.00   1.25   4.00   4.00   4.00   4.00   4.00   4.00   4.00   2.26   0.00   0.00      0      0      0       0    1019
 1990 343   159   156   21.0      5   3.21   3292   4077   3152   4868  13406   3730   84.5  0.235   6037      7  0.000  0.000  0.105  0.085   1.20  52.22   0.45      0   6037     97.4   0.00   0.00   1.25   3.98   3.98   3.98   3.98   3.98   3.98   3.98   2.24   0.00   0.00      0      0      0       0    1044
 1990 344   160   157   21.0      5   3.16   3292   4066   3323   4843  13566   3730   89.1  0.245   6208      7  0.000  0.000  0.108  0.428   1.17  53.53   0.46      0   6208     96.1   0.00   0.00   1.25   3.98   3.98   3.98   3.98   3.98   3.98   3.98   2.24   0.00   0.00      0      0      0       0    1068
 1990 345   161   158   21.0      5   3.12   3292   4077   3542   4872  13796   3730   95.0  0.257   6427      7  0.000  0.000  0.113  0.233   1.13  55.12   0.47      0   6427     94.7   0.00   0.00   1.25   4.00   4.00   4.00   3.98   3.98   3.96   3.95   2.22   0.00   0.00      0      0      0       0    1092
 1990 346   162   159   21.0      5   3.07   3292   4077   3680   4876  13934   3730   98.7  0.264   6565      7  0.000  0.000  0.123  0.127   1.11  56.06   0.47      0   6565     93.3   0.00   0.00   1.25   4.00   4.00   4.00   4.00   3.99   3.97   3.95   2.22   0.00   0.00      0      0      0       0    1117
 1990 347   163   160   21.0      5   3.02   3292   4077   3883   4882  14137   3730  104.1  0.275   6768      7  0.000  0.000  0.126  0.047   1.08  57.38   0.48      0   6768     91.8   0.00   0.00   1.25   4.00   4.00   4.00   4.00   4.00   3.99   3.95   2.22   0.00   0.00      0      0      0       0    1141
 1990 348   164   161   21.0      5   2.97   3292   4077   4018   4947  14271   3730  107.7  0.282   6902      7  0.000  0.000  0.135  0.004   1.07  58.21   0.48      0   6902     90.2   0.00   0.00   1.25   4.00   4.00   4.00   4.00   4.00   4.00   4.00   2.25   0.00   0.00      0      0      0       0    1165
 1990 349   165   162   21.0      5   2.92   3292   4077   4220   5004  14474   3730  113.1  0.292   7105      7  0.000  0.000  0.137  0.000   1.04  59.40   0.49      0   7105     88.7   0.00   0.00   1.25   4.00   4.00   4.00   4.00   4.00   4.00   4.00   2.27   0.00   0.00      0      0      0       0    1190
 1990 350   166   163   21.0      5   2.87   3292   4077   4487   5031  14741   3730  120.3  0.304   7372      7  0.000  0.000  0.142  0.000   1.00  60.87   0.50      0   7372     87.1   0.00   0.00   1.25   4.00   4.00   4.00   4.00   4.00   4.00   4.00   2.28   0.00   0.00      0      0      0       0    1215
 1990 351   167   164   21.0      5   2.81   3292   4032   4767   5006  14976   3730  127.8  0.318   7652      7  0.000  0.000  0.152  0.000   0.97  62.30   0.51      0   7652     85.5   0.00   0.00   1.25   4.00   4.00   4.00   4.00   4.00   4.00   4.00   2.28   0.00   0.00      0      0      0       0    1240
 1990 352   168   165   21.0      5   2.76   3292   4077   5023   5027  15277   3730  134.7  0.329   7908      7  0.000  0.000  0.164  0.000   0.93  63.52   0.52      0   7908     83.7   0.00   0.00   1.25   4.00   4.00   4.00   4.00   4.00   4.00   4.00   2.28   0.00   0.00      0      0      0       0    1265
 1990 353   169   166   21.0      5   2.70   3292   4077   5246   5070  15500   3730  140.6  0.338   8130      7  0.000  0.000  0.172  0.000   0.90  64.52   0.52      0   8130     81.9   0.00   0.00   1.25   4.00   4.00   4.00   4.00   4.00   4.00   4.00   2.30   0.00   0.00      0      0      0       0    1290
 1990 354   170   167   21.0      5   2.64   3292   4077   5481   5108  15735   3730  147.0  0.348   8366      7  0.000  0.000  0.183  0.020   0.87  65.52   0.53      0   8366     80.0   0.00   0.00   1.25   4.00   4.00   4.00   4.00   4.00   4.00   4.00   2.31   0.00   0.00      0      0      0       0    1316
 1990 355   171   168   21.0      5   2.57   3292   4077   5761   5110  16015   3730  154.5  0.360   8646      7  0.000  0.000  0.191  0.000   0.84  66.63   0.54      0   8646     78.1   0.00   0.00   1.25   4.00   4.00   4.00   4.00   4.00   4.00   4.00   2.31   0.00   0.00      0      0      0       0    1341
 1990 356   172   169   21.0      5   2.51   3292   3949   6037   5084  16164   3730  161.9  0.374   8922      7  0.000  0.000  0.204  0.000   0.82  67.67   0.55      0   8922     76.2   0.00   0.00   1.25   4.00   4.00   4.00   4.00   4.00   4.00   4.00   2.31   0.00   0.00      0      0      0       0    1367
 1990 357   173   170   21.0      5   2.44   3292   3946   6317   5059  16440   3730  169.4  0.384   9202      7  0.000  0.000  0.237  0.000   0.79  68.65   0.56      0   9202     74.2   0.00   0.00   1.25   4.00   4.00   4.00   4.00   4.00   4.00   4.00   2.31   0.00   0.00      0      0      0       0    1392
 1990 358   174   171   21.0      5   2.37   3292   3904   6539   5034  16620   3730  175.3  0.393   9423      7  0.000  0.000  0.255  0.334   0.77  69.39   0.57      0   9423     72.1   0.00   0.00   1.25   4.00   4.00   4.00   4.00   4.00   4.00   4.00   2.31   0.00   0.00      0      0      0       0    1418
 1990 359   175   172   21.0      5   2.31   3292   3995   6743   5054  16915   3730  180.8  0.399   9628      7  0.000  0.000  0.282  0.153   0.74  70.04   0.57      0   9628     70.1   0.00   0.00   1.25   4.00   4.00   4.00   4.00   4.00   4.00   4.00   2.32   0.00   0.00      0      0      0       0    1443
 1990 360   176   173   21.0      5   2.24   3292   4055   7023   5059  17255   3730  188.3  0.407   9908      7  0.000  0.000  0.296  0.045   0.71  70.88   0.57      0   9908     68.0   0.00   0.00   1.25   4.00   4.00   4.00   4.00   4.00   4.00   4.00   2.32   0.00   0.00      0      0      0       0    1468
 1990 361   177   174   21.0      5   2.17   3292   4077   7303   5056  17557   3730  195.8  0.416  10188      7  0.000  0.000  0.342  0.004   0.68  71.68   0.58      0  10188     65.9   0.00   0.00   1.25   4.00   4.00   4.00   4.00   4.00   4.00   4.00   2.32   0.00   0.00      0      0      0       0    1493
 1990 362   178   175   21.0      5   2.10   3292   4077   7461   5077  17715   3730  200.0  0.421  10346      7  0.000  0.000  0.387  0.000   0.67  72.12   0.58      0  10346     63.8   0.00   0.00   1.25   4.00   4.00   4.00   4.00   4.00   4.00   4.00   2.32   0.00   0.00      0      0      0       0    1519
 1990 363   179   176   21.0      5   2.03   3292   4077   7601   5095  17855   3730  203.8  0.426  10486      7  0.000  0.000  0.398  0.000   0.67  72.49   0.59      0  10486     61.7   0.00   0.00   1.25   4.00   4.00   4.00   4.00   4.00   4.00   4.00   2.33   0.00   0.00      0      0      0       0    1544
 1990 364   180   177   21.0      5   1.96   3292   4077   7808   5097  18062   3730  209.3  0.432  10692      7  0.000  0.000  0.402  0.000   0.65  73.02   0.59      0  10692     59.6   0.00   0.00   1.25   4.00   4.00   4.00   4.00   4.00   4.00   4.00   2.33   0.00   0.00      0      0      0       0    1569
 1990 365   181   178   21.0      5   1.90   3292   4077   8078   5083  18332   3730  216.6  0.441  10963      7  0.000  0.000  0.418  0.000   0.63  73.69   0.60      0  10963     57.6   0.00   0.00   1.25   4.00   4.00   4.00   3.99   3.99   3.99   3.99   2.32   0.00   0.00      0      0      0       0    1595
 1991 001   182   179   21.0      5   1.83   3292   4024   8358   5057  18559   3730  224.1  0.450  11243      7  0.000  0.000  0.447  0.000   0.61  74.34   0.61      0  11243     55.5   0.00   0.00   1.25   4.00   4.00   4.00   3.99   3.99   3.99   3.99   2.32   0.00   0.00      0      0      0       0    1620
 1991 002   183   180   21.0      5   1.76   3292   3954   8638   5032  18769   3730  231.6  0.460  11523      7  0.000  0.000  0.478  0.000   0.60  74.96   0.61      0  11523     53.5   0.00   0.00   1.25   4.00   4.00   4.00   3.99   3.99   3.99   3.99   2.32   0.00   0.00      0      0      0       0    1646
 1991 003   184   181   21.0      5   1.70   3292   3893   8918   5007  18988   3730  239.1  0.470  11802      7  0.000  0.000  0.500  0.000   0.59  75.56   0.62      0  11802     51.5   0.00   0.00   1.25   4.00   4.00   4.00   3.99   3.99   3.99   3.99   2.32   0.00   0.00      0      0      0       0    1671
 1991 004   185   182   21.0      5   1.63   3292   3890   9163   4982  19230   3730  245.7  0.477  12048      7  0.000  0.000  0.521  0.000   0.57  76.06   0.63      0  12048     49.5   0.00   0.00   1.25   4.00   4.00   4.00   3.99   3.99   3.99   3.99   2.32   0.00   0.00      0      0      0       0    1696
 1991 005   186   183   21.0      5   1.57   3292   3875   9409   4957  19461   3730  252.3  0.483  12294      7  0.000  0.000  0.534  0.000   0.56  76.53   0.63      0  12294     47.6   0.00   0.00   1.25   4.00   4.00   4.00   3.99   3.99   3.99   3.99   2.32   0.00   0.00      0      0      0       0    1721
 1991 006   187   184   21.0      5   1.50   3292   3831   9668   4932  19676   3730  259.2  0.491  12553      7  0.000  0.000  0.558  0.000   0.55  77.02   0.64      0  12553     45.7   0.00   0.00   1.25   4.00   4.00   4.00   3.99   3.99   3.99   3.99   2.32   0.00   0.00      0      0      0       0    1745
 1991 007   188   185   21.0      5   1.50   3292   3831   9668   4932  19676   3730  259.2  0.491  12553      7  0.000  0.000  0.558  0.000   0.55  77.02   0.64      0  12553     45.7   0.00   0.00   1.25   4.00   4.00   4.00   3.99   3.99   3.99   3.99   2.32   0.00   0.00      0      0      0       0    1745
 1991 008   189   186   21.0      5   1.50   3292   3831   9668   4932  19676   3730  259.2  0.491  12553      7  0.000  0.000  0.558  0.000   0.55  77.02   0.64      0  12553     45.7   0.00   0.00   1.25   4.00   4.00   4.00   3.99   3.99   3.99   3.99   2.32   0.00   0.00      0      0      0       0    1745
 1991 009   190   187   21.0      5   1.50   3292   3831   9668   4932  19676   3730  259.2  0.491  12553      7  0.000  0.000  0.558  0.000   0.55  77.02   0.64      0  12553     45.7   0.00   0.00   1.25   4.00   4.00   4.00   3.99   3.99   3.99   3.99   2.32   0.00   0.00      0      0      0       0    1745

*DSSAT Cropping System Model Ver. 4.0.2.000               Jul 19, 2016; 15:23:40

*RUN   2        : UYMZ                    
 MODEL          : MZCER040 - Maize           
 EXPERIMENT     : UYMZ0017 MZ    late to create DSS                             
 TREATMENT  1   : UYMZ                    

@YEAR DOY   DAS   DAP   L#SD   GSTD   LAID   LWAD   SWAD   GWAD   RWAD   CWAD   G#AD   GWGD   HIAD   PWAD   P#AD   WSPD   WSGD   NSTD   EWSD   LN%D   SH%D   HIPD   PWDD   PWTD     SLAD   CHTD   CWID   RDPD   RL1D   RL2D   RL3D   RL4D   RL5D   RL6D   RL7D   RL8D   RL9D   RL10   CDAD   LDAD   SDAD   SNW0C   SNW1C
 1991 187     3     0    0.0      0   0.00      0      0      0      0      0      0    0.0  0.000      0      0  0.000  0.000  0.000  0.000   0.00   0.00   0.00      0      0      0.0   0.00   0.00   0.03   0.00   0.00   0.00   0.00   0.00   0.00   0.00   0.00   0.00   0.00      0      0      0       0       0
 1991 188     4     1    0.0      0   0.00      0      0      0      0      0      0    0.0  0.000      0      0  0.000  0.000  0.000  0.000   0.00   0.00   0.00      0      0      0.0   0.00   0.00   0.03   0.00   0.00   0.00   0.00   0.00   0.00   0.00   0.00   0.00   0.00      0      0      0       0       0
 1991 189     5     2    0.0      0   0.00      0      0      0      0      0      0    0.0  0.000      0      0  0.000  0.000  0.000  0.000   0.00   0.00   0.00      0      0      0.0   0.00   0.00   0.03   0.00   0.00   0.00   0.00   0.00   0.00   0.00   0.00   0.00   0.00      0      0      0       0       0
 1991 190     6     3    0.0      0   0.00      0      0      0      0      0      0    0.0  0.000      0      0  0.000  0.000  0.000  0.000   0.00   0.00   0.00      0      0      0.0   0.00   0.00   0.03   0.00   0.00   0.00   0.00   0.00   0.00   0.00   0.00   0.00   0.00      0      0      0       0       0
 1991 191     7     4    0.0      0   0.00      0      0      0      0      0      0    0.0  0.000      0      0  0.000  0.000  0.000  0.000   0.00   0.00   0.00      0      0      0.0   0.00   0.00   0.03   0.00   0.00   0.00   0.00   0.00   0.00   0.00   0.00   0.00   0.00      0      0      0       0       0
 1991 192     8     5    0.0      0   0.00      0      0      0      0      0      0    0.0  0.000      0      0  0.000  0.000  0.000  0.000   0.00   0.00   0.00      0      0      0.0   0.00   0.00   0.03   0.00   0.00   0.00   0.00   0.00   0.00   0.00   0.00   0.00   0.00      0      0      0       0       0
 1991 193     9     6    0.0      0   0.00      0      0      0      0      0      0    0.0  0.000      0      0  0.000  0.000  0.000  0.000   0.00   0.00   0.00      0      0      0.0   0.00   0.00   0.03   0.00   0.00   0.00   0.00   0.00   0.00   0.00   0.00   0.00   0.00      0      0      0       0       0
 1991 194    10     7    0.0      0   0.00      0      0      0      0      0      0    0.0  0.000      0      0  0.000  0.000  0.000  0.000   0.00   0.00   0.00      0      0      0.0   0.00   0.00   0.03   0.00   0.00   0.00   0.00   0.00   0.00   0.00   0.00   0.00   0.00      0      0      0       0       0
 1991 195    11     8    0.0      0   0.00      0      0      0      0      0      0    0.0  0.000      0      0  0.000  0.000  0.000  0.000   0.00   0.00   0.00      0      0      0.0   0.00   0.00   0.03   0.00   0.00   0.00   0.00   0.00   0.00   0.00   0.00   0.00   0.00      0      0      0       0       0
 1991 196    12     9    0.0      0   0.00      0      0      0      0      0      0    0.0  0.000      0      0  0.000  0.000  0.000  0.000   0.00   0.00   0.00      0      0      0.0   0.00   0.00   0.03   0.00   0.00   0.00   0.00   0.00   0.00   0.00   0.00   0.00   0.00      0      0      0       0       0
 1991 197    13    10    0.0      0   0.00      0      0      0      0      0      0    0.0  0.000      0      0  0.000  0.000  0.000  0.000   0.00   0.00   0.00      0      0      0.0   0.00   0.00   0.03   0.00   0.00   0.00   0.00   0.00   0.00   0.00   0.00   0.00   0.00      0      0      0       0       0
 1991 198    14    11    0.0      0   0.00      0      0      0      0      0      0    0.0  0.000      0      0  0.000  0.000  0.000  0.000   0.00   0.00   0.00      0      0      0.0   0.00   0.00   0.04   0.00   0.00   0.00   0.00   0.00   0.00   0.00   0.00   0.00   0.00      0      0      0       0       0
 1991 199    15    12    0.0      0   0.00      0      0      0      0      0      0    0.0  0.000      0      0  0.000  0.000  0.000  0.000   0.00   0.00   0.00      0      0      0.0   0.00   0.00   0.05   0.00   0.00   0.00   0.00   0.00   0.00   0.00   0.00   0.00   0.00      0      0      0       0       0
 1991 200    16    13    0.0      0   0.00      0      0      0      0      0      0    0.0  0.000      0      0  0.000  0.000  0.000  0.000   0.00   0.00   0.00      0      0      0.0   0.00   0.00   0.06   0.00   0.00   0.00   0.00   0.00   0.00   0.00   0.00   0.00   0.00      0      0      0       0       0
 1991 201    17    14    0.0      0   0.00      0      0      0      0      0      0    0.0  0.000      0      0  0.000  0.000  0.000  0.000   0.00   0.00   0.00      0      0      0.0   0.00   0.00   0.07   0.00   0.00   0.00   0.00   0.00   0.00   0.00   0.00   0.00   0.00      0      0      0       0       0
 1991 202    18    15    0.0      0   0.00      0      0      0      0      0      0    0.0  0.000      0      0  0.000  0.000  0.000  0.000   0.00   0.00   0.00      0      0      0.0   0.00   0.00   0.07   0.00   0.00   0.00   0.00   0.00   0.00   0.00   0.00   0.00   0.00      0      0      0       0       0
 1991 203    19    16    0.0      0   0.00      0      0      0      0      0      0    0.0  0.000      0      0  0.000  0.000  0.000  0.000   0.00   0.00   0.00      0      0      0.0   0.00   0.00   0.07   0.00   0.00   0.00   0.00   0.00   0.00   0.00   0.00   0.00   0.00      0      0      0       0       0
 1991 204    20    17    0.0      0   0.00      0      0      0      0      0      0    0.0  0.000      0      0  0.000  0.000  0.000  0.000   0.00   0.00   0.00      0      0      0.0   0.00   0.00   0.08   0.00   0.00   0.00   0.00   0.00   0.00   0.00   0.00   0.00   0.00      0      0      0       0       0
 1991 205    21    18    0.0      0   0.00      0      0      0      0      0      0    0.0  0.000      0      0  0.000  0.000  0.000  0.000   0.00   0.00   0.00      0      0      0.0   0.00   0.00   0.08   0.00   0.00   0.00   0.00   0.00   0.00   0.00   0.00   0.00   0.00      0      0      0       0       0
 1991 206    22    19    0.0      0   0.00      0      0      0      0      0      0    0.0  0.000      0      0  0.000  0.000  0.000  0.000   0.00   0.00   0.00      0      0      0.0   0.00   0.00   0.08   0.00   0.00   0.00   0.00   0.00   0.00   0.00   0.00   0.00   0.00      0      0      0       0       0
 1991 207    23    20    0.0      0   0.00      0      0      0      0      0      0    0.0  0.000      0      0  0.000  0.000  0.000  0.000   0.00   0.00   0.00      0      0      0.0   0.00   0.00   0.10   0.00   0.00   0.00   0.00   0.00   0.00   0.00   0.00   0.00   0.00      0      0      0       0       0
 1991 208    24    21    0.0      0   0.00      0      0      0      0      0      0    0.0  0.000      0      0  0.000  0.000  0.000  0.000   0.00   0.00   0.00      0      0      0.0   0.00   0.00   0.11   0.00   0.00   0.00   0.00   0.00   0.00   0.00   0.00   0.00   0.00      0      0      0       0       0
 1991 209    25    22    1.0      1   0.00     14     14      0     14     28      0    0.0  0.000      0      0  0.000  0.000  0.012  0.000   4.40   0.00   0.00      0      0     23.9   0.00   0.00   0.13   0.28   0.09   0.00   0.00   0.00   0.00   0.00   0.00   0.00   0.00      0      0      0       0       0
 1991 210    26    23    2.0      1   0.01     14     14      0     14     28      0    0.0  0.000      0      0  0.000  0.000  0.013  0.000   4.51   0.00   0.00      0      0     46.3   0.00   0.00   0.14   0.28   0.09   0.00   0.00   0.00   0.00   0.00   0.00   0.00   0.00      0      0      0       0       0
 1991 211    27    24    2.0      1   0.01     14     14      0     14     28      0    0.0  0.000      0      0  0.000  0.000  0.000  0.000   4.51   0.00   0.00      0      0     58.0   0.00   0.00   0.15   0.28   0.10   0.00   0.00   0.00   0.00   0.00   0.00   0.00   0.00      0      0      0       0       0
 1991 212    28    25    2.0      1   0.01     14     14      0     15     28      0    0.0  0.000      0      0  0.000  0.000  0.000  0.000   4.49   0.00   0.00      0      0     63.1   0.00   0.00   0.15   0.26   0.10   0.00   0.00   0.00   0.00   0.00   0.00   0.00   0.00      0      0      0       0       0
 1991 213    29    26    2.0      1   0.01     14     14      0     15     28      0    0.0  0.000      0      0  0.000  0.000  0.000  0.000   4.49   0.00   0.00      0      0     44.0   0.00   0.00   0.15   0.26   0.10   0.00   0.00   0.00   0.00   0.00   0.00   0.00   0.00      0      0      0       0       0
 1991 214    30    27    2.0      1   0.00     14     14      0     15     28      0    0.0  0.000      0      0  0.000  0.000  0.000  0.000   4.49   0.00   0.00      0      0     17.2   0.00   0.00   0.15   0.26   0.10   0.00   0.00   0.00   0.00   0.00   0.00   0.00   0.00      0      0      0       0       0
 1991 215    31    28    2.0      1   0.00     14     14      0     15     28      0    0.0  0.000      0      0  0.000  0.000  0.000  0.000   4.49   0.00   0.00      0      0      9.3   0.00   0.00   0.15   0.24   0.10   0.00   0.00   0.00   0.00   0.00   0.00   0.00   0.00      0      0      0       0       0
 1991 216    32    29    2.0      1   0.00     14     14      0     15     28      0    0.0  0.000      0      0  0.000  0.000  0.000  0.000   4.49   0.00   0.00      0      0      9.3   0.00   0.00   0.15   0.22   0.09   0.00   0.00   0.00   0.00   0.00   0.00   0.00   0.00      0      0      0       0       0
 1991 217    33    30    2.0      1   0.00     14     14      0     15     28      0    0.0  0.000      0      0  0.000  0.000  0.000  0.184   4.49   0.00   0.00      0      0     12.3   0.00   0.00   0.15   0.21   0.09   0.00   0.00   0.00   0.00   0.00   0.00   0.00   0.00      0      0      0       0       0
 1991 218    34    31    2.0      1   0.00     14     14      0     15     28      0    0.0  0.000      0      0  0.000  0.000  0.000  0.000   4.49   0.00   0.00      0      0     10.3   0.00   0.00   0.15   0.20   0.08   0.00   0.00   0.00   0.00   0.00   0.00   0.00   0.00      0      0      0       0       0
 1991 219    35    32    2.0      1   0.00     14     14      0     15     28      0    0.0  0.000      0      0  0.000  0.000  0.000  0.000   4.49   0.00   0.00      0      0     11.4   0.00   0.00   0.15   0.20   0.08   0.00   0.00   0.00   0.00   0.00   0.00   0.00   0.00      0      0      0       0       0
 1991 220    36    33    3.0      1   0.00     14     14      0     15     28      0    0.0  0.000      0      0  0.000  0.000  0.000  0.000   4.49   0.00   0.00      0      0     20.1   0.00   0.00   0.16   0.20   0.08   0.00   0.00   0.00   0.00   0.00   0.00   0.00   0.00      0      0      0       0       0
 1991 221    37    34    3.0      1   0.00     14     14      0     15     28      0    0.0  0.000      0      0  0.000  0.000  0.000  0.000   4.49   0.00   0.00      0      0     30.6   0.00   0.00   0.16   0.19   0.08   0.00   0.00   0.00   0.00   0.00   0.00   0.00   0.00      0      0      0       0       0
 1991 222    38    35    3.0      1   0.00     14     14      0     15     28      0    0.0  0.000      0      0  0.000  0.000  0.000  0.000   4.49   0.00   0.00      0      0     34.8   0.00   0.00   0.16   0.19   0.08   0.00   0.00   0.00   0.00   0.00   0.00   0.00   0.00      0      0      0       0       0
 1991 223    39    36    3.0      1   0.01     14     14      0     15     28      0    0.0  0.000      0      0  0.000  0.000  0.000  0.000   4.49   0.00   0.00      0      0     37.8   0.00   0.00   0.17   0.19   0.08   0.00   0.00   0.00   0.00   0.00   0.00   0.00   0.00      0      0      0       0       0
 1991 224    40    37    3.0      1   0.00     14     14      0     15     28      0    0.0  0.000      0      0  0.000  0.000  0.000  0.000   4.49   0.00   0.00      0      0     33.4   0.00   0.00   0.17   0.19   0.09   0.00   0.00   0.00   0.00   0.00   0.00   0.00   0.00      0      0      0       0       0
 1991 225    41    38    3.0      1   0.01     14     14      0     16     28      0    0.0  0.000      0      0  0.000  0.000  0.000  0.000   4.49   0.00   0.00      0      0     45.3   0.00   0.00   0.17   0.19   0.09   0.00   0.00   0.00   0.00   0.00   0.00   0.00   0.00      0      0      0       0       0
 1991 226    42    39    3.0      1   0.01     14     14      0     16     28      0    0.0  0.000      0      0  0.000  0.000  0.000  0.000   4.49   0.00   0.00      0      0     71.9   0.00   0.00   0.18   0.19   0.10   0.01   0.00   0.00   0.00   0.00   0.00   0.00   0.00      0      0      0       0       0
 1991 227    43    40    4.0      1   0.02     14     14      0     17     28      0    0.0  0.000      0      0  0.000  0.000  0.000  0.000   4.49   0.00   0.00      0      0    176.1   0.00   0.00   0.20   0.19   0.11   0.01   0.00   0.00   0.00   0.00   0.00   0.00   0.00      0      0      0       0       0
 1991 228    44    41    4.0      1   0.04     15     14      0     19     29      0    0.0  0.000      0      0  0.000  0.000  0.000  0.000   4.14   0.00   0.00      0      0    278.3   0.00   0.00   0.21   0.19   0.12   0.03   0.00   0.00   0.00   0.00   0.00   0.00   0.00      0      0      0       0       0
 1991 229    45    42    4.0      1   0.06     21     14      0     22     35      0    0.0  0.000      0      0  0.000  0.000  0.000  0.000   3.55   0.00   0.00      0      0    273.9   0.00   0.00   0.22   0.20   0.14   0.05   0.00   0.00   0.00   0.00   0.00   0.00   0.00      0      0      0       0       0
 1991 230    46    43    5.0      1   0.08     29     14      0     23     43      0    0.0  0.000      0      0  0.000  0.000  0.000  0.000   3.56   0.00   0.00      0      0    267.2   0.00   0.00   0.23   0.20   0.14   0.06   0.00   0.00   0.00   0.00   0.00   0.00   0.00      0      0      0       0       0
 1991 231    47    44    5.0      1   0.10     37     14      0     27     51      0    0.0  0.000      0      0  0.000  0.000  0.000  0.000   3.55   0.00   0.00      0      0    259.8   0.00   0.00   0.24   0.20   0.17   0.09   0.00   0.00   0.00   0.00   0.00   0.00   0.00      0      0      0       0       1
 1991 232    48    45    5.0      1   0.12     47     14      0     30     61      0    0.0  0.000      0      0  0.000  0.000  0.000  0.000   3.55   0.00   0.00      0      0    252.2   0.00   0.00   0.25   0.21   0.18   0.12   0.00   0.00   0.00   0.00   0.00   0.00   0.00      0      0      0       0       1
 1991 233    49    46    6.0      1   0.14     58     14      0     39     72      0    0.0  0.000      0      0  0.000  0.000  0.000  0.000   3.54   0.00   0.00      0      0    244.6   0.00   0.00   0.27   0.23   0.23   0.20   0.00   0.00   0.00   0.00   0.00   0.00   0.00      0      0      0       0       1
 1991 234    50    47    6.0      1   0.17     73     14      0     48     87      0    0.0  0.000      0      0  0.000  0.000  0.000  0.000   3.46   0.00   0.00      0      0    236.4   0.00   0.00   0.28   0.25   0.27   0.28   0.00   0.00   0.00   0.00   0.00   0.00   0.00      0      0      0       0       1
 1991 235    51    48    6.0      1   0.20     86     14      0     65    100      0    0.0  0.000      0      0  0.000  0.000  0.000  0.000   3.59   0.00   0.00      0      0    230.3   0.00   0.00   0.29   0.29   0.34   0.43   0.00   0.00   0.00   0.00   0.00   0.00   0.00      0      0      0       0       1
 1991 236    52    49    6.0      1   0.22     97     14      0     85    111      0    0.0  0.000      0      0  0.000  0.000  0.000  0.000   3.71   0.00   0.00      0      0    225.8   0.00   0.00   0.30   0.35   0.43   0.62   0.00   0.00   0.00   0.00   0.00   0.00   0.00      0      0      0       0       2
 1991 237    53    50    7.0      1   0.25    113     14      0    102    127      0    0.0  0.000      0      0  0.000  0.000  0.000  0.000   3.57   0.00   0.00      0      0    220.0   0.00   0.00   0.31   0.39   0.50   0.78   0.00   0.00   0.00   0.00   0.00   0.00   0.00      0      0      0       0       2
 1991 238    54    51    7.0      1   0.27    124     14      0    105    138      0    0.0  0.000      0      0  0.000  0.000  0.000  0.000   3.77   0.00   0.00      0      0    216.7   0.00   0.00   0.31   0.40   0.52   0.81   0.00   0.00   0.00   0.00   0.00   0.00   0.00      0      0      0       0       3
 1991 239    55    52    7.0      1   0.28    133     14      0    109    147      0    0.0  0.000      0      0  0.000  0.000  0.000  0.000   3.82   0.00   0.00      0      0    214.1   0.00   0.00   0.32   0.41   0.53   0.85   0.00   0.00   0.00   0.00   0.00   0.00   0.00      0      0      0       0       3
 1991 240    56    53    7.0      1   0.31    150     14      0    124    164      0    0.0  0.000      0      0  0.000  0.000  0.000  0.000   3.63   0.00   0.00      0      0    209.7   0.00   0.00   0.32   0.45   0.60   0.98   0.01   0.00   0.00   0.00   0.00   0.00   0.00      0      0      0       0       4
 1991 241    57    54    8.0      1   0.35    172     14      0    138    186      0    0.0  0.000      0      0  0.000  0.000  0.000  0.000   3.54   0.00   0.00      0      0    204.6   0.00   0.00   0.34   0.49   0.66   1.09   0.03   0.00   0.00   0.00   0.00   0.00   0.00      0      0      0       0       4
 1991 242    58    55    8.0      1   0.40    200     14      0    143    214      0    0.0  0.000      0      0  0.000  0.000  0.000  0.000   3.47   0.00   0.00      0      0    199.1   0.00   0.00   0.35   0.50   0.68   1.13   0.03   0.00   0.00   0.00   0.00   0.00   0.00      0      0      0       0       5
 1991 243    59    56    8.0      1   0.42    215     14      0    149    229      0    0.0  0.000      0      0  0.000  0.000  0.000  0.000   3.73   0.00   0.00      0      0    196.2   0.00   0.00   0.36   0.52   0.70   1.18   0.04   0.00   0.00   0.00   0.00   0.00   0.00      0      0      0       0       6
 1991 244    60    57    8.0      1   0.44    226     14      0    165    240      0    0.0  0.000      0      0  0.000  0.000  0.000  0.000   3.79   0.00   0.00      0      0    194.2   0.00   0.00   0.37   0.54   0.77   1.30   0.07   0.00   0.00   0.00   0.00   0.00   0.00      0      0      0       0       6
 1991 245    61    58    8.0      1   0.46    243     14      0    172    257      0    0.0  0.000      0      0  0.000  0.000  0.000  0.000   3.69   0.00   0.00      0      0    191.2   0.00   0.00   0.37   0.54   0.80   1.36   0.09   0.00   0.00   0.00   0.00   0.00   0.00      0      0      0       0       7
 1991 246    62    59    9.0      1   0.51    274     14      0    191    288      0    0.0  0.000      0      0  0.000  0.000  0.000  0.000   3.51   0.00   0.00      0      0    186.5   0.00   0.00   0.39   0.56   0.88   1.50   0.13   0.00   0.00   0.00   0.00   0.00   0.00      0      0      0       0       8
 1991 247    63    60    9.0      1   0.57    313     14      0    237    327      0    0.0  0.000      0      0  0.000  0.000  0.000  0.000   3.43   0.00   0.00      0      0    181.4   0.00   0.00   0.41   0.61   1.07   1.82   0.26   0.00   0.00   0.00   0.00   0.00   0.00      0      0      0       0       9
 1991 248    64    61    9.0      2   0.65    339     14      0    296    353      0    0.0  0.000      0      0  0.000  0.000  0.000  0.000   3.59   0.00   0.00      0      0    190.5   0.00   0.00   0.42   0.67   1.29   2.23   0.46   0.00   0.00   0.00   0.00   0.00   0.00      0      0      0       0      10
 1991 249    65    62   10.0      2   0.70    374     14      0    301    388      0    0.0  0.000      0      0  0.000  0.000  0.003  0.000   3.55   0.00   0.00      0      0    186.7   0.00   0.00   0.44   0.67   1.31   2.26   0.48   0.00   0.00   0.00   0.00   0.00   0.00      0      0      0       0      12
[...]
 1992 318   134   131   20.0      3   2.47   3383   1759      0   4452   5142      0    0.0  0.000      0      0  0.715  0.811  0.042  0.000   1.99   0.00   0.00      0      0     72.9   0.00   0.00   0.92   3.98   4.00   4.00   4.00   4.00   2.19   0.11   0.00   0.00   0.00      0      0      0       0     630
 1992 319   135   132   20.0      3   2.43   3409   1840      0   4463   5250      0    0.0  0.000      0      0  0.512  0.675  0.042  0.000   1.96   0.00   0.00      0      0     71.2   0.00   0.00   0.93   3.96   4.00   4.00   4.00   4.00   2.21   0.21   0.00   0.00   0.00      0      0      0       0     652
 1992 320   136   133   20.0      3   2.39   3435   1917      0   4498   5351      0    0.0  0.000      0      0  0.488  0.659  0.041  0.000   1.93   0.00   0.00      0      0     69.7   0.00   0.00   0.95   4.00   4.00   4.00   3.98   4.00   2.25   0.43   0.00   0.00   0.00      0      0      0       0     675
 1992 321   137   134   20.0      3   2.42   3475   2036      0   4648   5510      0    0.0  0.000      0      0  0.000  0.000  0.042  0.000   1.88   0.00   0.00      0      0     69.6   0.00   0.00   0.96   4.00   4.00   4.00   3.98   4.00   2.39   1.10   0.00   0.00   0.00      0      0      0       0     697
 1992 322   138   135   20.0      3   2.44   3508   2134      0   4807   5642      0    0.0  0.000      0      0  0.000  0.000  0.044  0.000   1.85   0.00   0.00      0      0     69.5   0.00   0.00   0.96   4.00   4.00   4.00   3.96   4.00   2.54   1.77   0.00   0.00   0.00      0      0      0       0     720
 1992 323   139   136   20.0      3   2.46   3546   2247      0   4960   5793      0    0.0  0.000      0      0  0.000  0.000  0.046  0.000   1.81   0.00   0.00      0      0     69.4   0.00   0.00   0.97   4.00   4.00   4.00   3.96   4.00   2.69   2.39   0.00   0.00   0.00      0      0      0       0     744
 1992 324   140   137   20.0      3   2.50   3604   2419      0   5080   6023      0    0.0  0.000      0      0  0.000  0.000  0.048  0.000   1.75   0.00   0.00      0      0     69.4   0.00   0.00   0.98   4.00   4.00   4.00   3.94   4.00   2.81   2.86   0.00   0.00   0.00      0      0      0       0     769
 1992 325   141   138   20.0      3   2.55   3674   2623      0   5113   6296      0    0.0  0.000      0      0  0.000  0.028  0.050  0.000   1.68   0.00   0.00      0      0     69.5   0.00   0.00   0.99   4.00   4.00   4.00   3.93   4.00   2.85   3.04   0.00   0.00   0.00      0      0      0       0     795
 1992 326   142   139   20.0      4   2.54   3636   2225      0   5094   6400      0    0.0  0.000    539      0  0.000  0.000  0.054  0.000   1.81   0.00   0.08      0    539     69.8   0.00   0.00   1.00   4.00   4.00   4.00   3.91   3.99   2.84   3.04   0.00   0.00   0.00      0      0      0       0     820
 1992 327   143   140   20.0      4   2.51   3597   2247      0   5226   6439      0    0.0  0.000    595      0  0.178  0.452  0.061  0.000   1.82   0.00   0.09      0    595     69.9   0.00   0.00   1.01   3.98   4.00   4.00   3.91   4.00   3.02   3.40   0.00   0.00   0.00      0      0      0       0     846
 1992 328   144   141   20.0      4   2.49   3557   2266      0   5331   6465      0    0.0  0.000    642      0  0.202  0.468  0.046  0.000   1.83   0.00   0.10      0    642     70.0   0.00   0.00   1.01   3.96   4.00   4.00   3.89   3.98   3.19   3.63   0.00   0.00   0.00      0      0      0       0     872
 1992 329   145   142   20.0      4   2.43   3515   2288      0   5378   6499      0    0.0  0.000    696      0  0.500  0.667  0.043  0.000   1.84   0.00   0.11      0    696     69.0   0.00   0.00   1.02   3.94   4.00   4.00   3.88   3.99   3.29   3.68   0.00   0.00   0.00      0      0      0       0     898
 1992 330   146   143   20.0      4   2.37   3471   2314      0   5415   6546      0    0.0  0.000    761      0  0.458  0.639  0.040  0.000   1.85   0.00   0.12      0    761     68.3   0.00   0.00   1.04   3.92   4.00   4.00   3.86   3.97   3.38   3.72   0.00   0.00   0.00      0      0      0       0     925
 1992 331   147   144   20.0      4   2.31   3425   2337      0   5429   6582      0    0.0  0.000    820      0  0.525  0.684  0.037  0.000   1.86   0.00   0.12      0    820     67.4   0.00   0.00   1.05   3.90   4.00   4.00   3.85   3.96   3.43   3.74   0.00   0.00   0.00      0      0      0       0     952
 1992 332   148   145   20.0      4   2.23   3376   2353      0   5462   6589      0    0.0  0.000    860      0  0.677  0.785  0.034  0.000   1.87   0.00   0.13      0    860     66.1   0.00   0.00   1.06   3.88   4.00   4.00   3.83   3.94   3.51   3.78   0.00   0.00   0.00      0      0      0       0     979
 1992 333   149   146   20.0      4   2.16   3325   2372      0   5469   6604      0    0.0  0.000    906      0  0.641  0.761  0.032  0.000   1.89   0.00   0.14      0    906     64.9   0.00   0.00   1.07   3.86   4.00   4.00   3.81   3.93   3.57   3.81   0.00   0.00   0.00      0      0      0       0    1007
 1992 334   150   147   20.0      4   2.10   3272   2398      0   5469   6641      0    0.0  0.000    972      0  0.586  0.724  0.028  0.000   1.90   0.00   0.15      0    972     64.1   0.00   0.00   1.08   3.84   4.00   3.98   3.79   3.91   3.62   3.84   0.00   0.00   0.00      0      0      0       0    1034
 1992 335   151   148   20.0      4   2.02   3215   2414      0   5463   6641      0    0.0  0.000   1012      0  0.744  0.830  0.025  0.000   1.91   0.00   0.15      0   1012     62.8   0.00   0.00   1.09   3.95   4.00   3.97   3.77   3.90   3.64   3.86   0.00   0.00   0.00      0      0      0       0    1061
 1992 336   152   149   20.0      4   2.01   3157   2478      0   5574   6805      0    0.0  0.000   1171      0  0.000  0.000  0.023  0.000   1.91   0.00   0.17      0   1171     63.7   0.00   0.00   1.10   4.00   4.00   4.00   3.76   3.88   3.81   3.97   0.10   0.00   0.00      0      0      0       0    1089
 1992 337   153   150   20.0      4   2.01   3096   2529      0   5711   6925      0    0.0  0.000   1299      0  0.000  0.000  0.022  0.000   1.91   0.00   0.19      0   1299     64.8   0.00   0.00   1.10   4.00   4.00   4.00   3.74   3.88   4.00   4.00   0.27   0.00   0.00      0      0      0       0    1117
 1992 338   154   151   20.0      4   2.00   3034   2591      0   5796   7078      0    0.0  0.000   1453      0  0.000  0.000  0.022  0.000   1.92   0.00   0.21      0   1453     66.0   0.00   0.00   1.11   4.00   4.00   4.00   3.73   3.86   4.00   4.00   0.40   0.00   0.00      0      0      0       0    1145
 1992 339   155   152   20.0      4   2.00   2970   2668      0   5888   7284      0    0.0  0.000   1647      0  0.000  0.000  0.022  0.000   1.91   0.00   0.23      0   1647     67.2   0.00   0.00   1.12   4.00   4.00   4.00   3.71   3.85   4.00   4.00   0.57   0.00   0.00      0      0      0       0    1174
 1992 340   156   153   20.0      4   1.99   2902   2735      0   5899   7450      0    0.0  0.000   1813      0  0.000  0.169  0.022  0.000   1.91   0.00   0.24      0   1813     68.6   0.00   0.00   1.13   3.98   4.00   4.00   3.70   3.83   4.00   4.00   0.64   0.00   0.00      0      0      0       0    1204
 1992 341   157   154   20.0      5   1.96   2902   2735    154   5903   7604   2524    6.1  0.020   1967      7  0.339  0.560  0.000  0.000   1.86   7.83   0.26      0   1967     67.4   0.00   0.00   1.14   4.00   4.00   4.00   3.68   3.81   4.00   4.00   0.69   0.00   0.00      0      0      0       0    1233
 1992 342   158   155   20.0      5   1.96   2902   2735    319   5932   7769   2524   12.6  0.041   2132      7  0.000  0.000  0.000  0.000   1.81  14.95   0.27      0   2132     67.4   0.00   0.00   1.15   4.00   4.00   4.00   3.67   3.79   4.00   4.00   0.78   0.00   0.00      0      0      0       0    1263
 1992 343   159   156   20.0      5   1.96   2902   2735    490   5968   7940   2524   19.4  0.062   2303      7  0.000  0.000  0.000  0.000   1.76  21.28   0.29      0   2303     67.4   0.00   0.00   1.16   4.00   4.00   4.00   3.65   3.78   4.00   4.00   0.88   0.00   0.00      0      0      0       0    1292
 1992 344   160   157   20.0      5   1.96   2902   2735    666   5984   8116   2524   26.4  0.082   2479      7  0.000  0.000  0.000  0.000   1.71  26.86   0.31      0   2479     67.4   0.00   0.00   1.17   4.00   4.00   4.00   3.65   3.76   4.00   4.00   0.95   0.00   0.00      0      0      0       0    1322
 1992 345   161   158   20.0      5   1.96   2902   2735    855   6004   8305   2524   33.9  0.103   2668      7  0.000  0.000  0.000  0.000   1.66  32.05   0.32      0   2668     67.4   0.00   0.00   1.18   4.00   4.00   4.00   3.63   3.74   4.00   4.00   1.01   0.00   0.00      0      0      0       0    1352
 1992 346   162   159   20.0      5   1.96   2902   2735   1023   6031   8473   2524   40.5  0.121   2836      7  0.000  0.000  0.003  0.000   1.61  36.07   0.33      0   2836     67.4   0.00   0.00   1.19   4.00   4.00   4.00   3.63   3.72   4.00   4.00   1.08   0.00   0.00      0      0      0       0    1382
 1992 347   163   160   20.0      5   1.92   2902   2735   1152   6055   8602   2524   45.6  0.134   2965      7  0.318  0.546  0.011  0.000   1.57  38.84   0.34      0   2965     66.3   0.00   0.00   1.19   3.98   4.00   4.00   3.61   3.70   4.00   4.00   1.13   0.00   0.00      0      0      0       0    1412
 1992 348   164   161   20.0      5   1.87   2902   2735   1284   6051   8734   2524   50.9  0.147   3097      7  0.550  0.700  0.015  0.000   1.53  41.45   0.35      0   3097     64.5   0.00   0.00   1.20   3.96   4.00   4.00   3.60   3.69   4.00   4.00   1.15   0.00   0.00      0      0      0       0    1442
 1992 349   165   162   20.0      5   1.82   2902   2735   1407   6040   8857   2524   55.8  0.159   3220      7  0.587  0.725  0.020  0.000   1.50  43.70   0.36      0   3220     62.6   0.00   0.00   1.21   3.94   4.00   4.00   3.58   3.67   4.00   4.00   1.15   0.00   0.00      0      0      0       0    1473
 1992 350   166   163   20.0      5   1.76   2902   2735   1496   6034   8946   2524   59.3  0.167   3309      7  0.632  0.755  0.026  0.000   1.47  45.20   0.37      0   3309     60.6   0.00   0.00   1.22   3.92   4.00   4.00   3.57   3.65   3.98   4.00   1.16   0.00   0.00      0      0      0       0    1503
 1992 351   167   164   20.0      5   1.70   2902   2735   1602   6010   9052   2524   63.5  0.177   3415      7  0.674  0.783  0.028  0.000   1.44  46.90   0.38      0   3415     58.6   0.00   0.00   1.23   3.90   4.00   4.00   3.55   3.63   3.96   3.99   1.16   0.00   0.00      0      0      0       0    1533
 1992 352   168   165   20.0      5   1.66   2902   2735   1736   5983   9186   2524   68.8  0.189   3549      7  0.533  0.689  0.030  0.000   1.40  48.91   0.39      0   3549     57.0   0.00   0.00   1.24   3.88   4.00   4.00   3.53   3.61   3.94   3.97   1.15   0.00   0.00      0      0      0       0    1563
 1992 353   169   166   20.0      5   1.59   2902   2734   1844   5953   9293   2524   73.1  0.198   3657      7  0.773  0.849  0.036  0.000   1.37  50.42   0.39      0   3657     54.8   0.00   0.00   1.24   3.88   4.00   4.00   3.53   3.61   3.94   3.97   1.15   0.00   0.00      0      0      0       0    1593
 1992 354   170   167   20.0      5   1.55   2902   2729   1976   5924   9420   2524   78.3  0.210   3789      7  0.550  0.701  0.040  0.000   1.33  52.15   0.40      0   3789     53.3   0.00   0.00   1.24   3.88   4.00   4.00   3.53   3.61   3.94   3.97   1.15   0.00   0.00      0      0      0       0    1623
 1992 355   171   168   20.0      5   1.48   2902   2712   2080   5894   9507   2524   82.4  0.219   3893      7  0.822  0.882  0.044  0.000   1.30  53.42   0.41      0   3893     51.1   0.00   0.00   1.24   3.88   4.00   4.00   3.53   3.61   3.94   3.97   1.15   0.00   0.00      0      0      0       0    1652
 1992 356   172   169   20.0      5   1.43   2902   2709   2195   5864   9620   2524   87.0  0.228   4008      7  0.709  0.807  0.046  0.000   1.27  54.76   0.42      0   4008     49.3   0.00   0.00   1.24   3.88   4.00   4.00   3.53   3.61   3.94   3.97   1.15   0.00   0.00      0      0      0       0    1682
 1992 357   173   170   20.0      5   1.39   2902   2655   2331   5835   9701   2524   92.4  0.240   4144      7  0.510  0.674  0.049  0.000   1.24  56.25   0.43      0   4144     48.0   0.00   0.00   1.24   3.88   4.00   4.00   3.53   3.61   3.94   3.97   1.15   0.00   0.00      0      0      0       0    1711
 1992 358   174   171   20.0      5   1.37   2902   2610   2487   5806   9813   2524   98.5  0.253   4300      7  0.320  0.547  0.056  0.000   1.21  57.84   0.44      0   4300     47.3   0.00   0.00   1.24   3.88   4.00   4.00   3.53   3.61   3.94   3.97   1.15   0.00   0.00      0      0      0       0    1740
 1992 359   175   172   20.0      5   1.31   2902   2569   2587   5777   9872   2524  102.5  0.262   4400      7  0.856  0.904  0.062  0.000   1.19  58.80   0.45      0   4400     45.3   0.00   0.00   1.24   3.88   4.00   4.00   3.53   3.61   3.94   3.97   1.15   0.00   0.00      0      0      0       0    1769
 1992 360   176   173   20.0      5   1.30   2902   2637   2757   5782  10110   2524  109.2  0.273   4571      7  0.000  0.000  0.061  0.000   1.13  60.33   0.45      0   4571     44.9   0.00   0.00   1.25   4.00   4.00   4.00   3.51   3.59   3.92   3.96   1.17   0.00   0.00      0      0      0       0    1798
 1992 361   177   174   20.0      5   1.29   2902   2735   2913   5818  10363   2524  115.4  0.281   4726      7  0.000  0.000  0.070  0.000   1.08  61.64   0.46      0   4726     44.5   0.00   0.00   1.25   4.00   4.00   4.00   3.50   3.57   3.90   3.94   1.21   0.00   0.00      0      0      0       0    1827
 1992 362   178   175   20.0      5   1.28   2902   2735   3068   5849  10519   2524  121.6  0.292   4881      7  0.000  0.000  0.089  0.000   1.04  62.86   0.46      0   4881     44.0   0.00   0.00   1.25   4.00   4.00   4.00   3.49   3.56   3.88   3.95   1.25   0.00   0.00      0      0      0       0    1856
 1992 363   179   176   20.0      5   1.26   2902   2735   3258   5867  10708   2524  129.1  0.304   5071      7  0.000  0.279  0.108  0.000   1.00  64.24   0.47      0   5071     43.4   0.00   0.00   1.25   3.98   4.00   4.00   3.48   3.54   3.86   3.93   1.28   0.00   0.00      0      0      0       0    1886
 1992 364   180   177   20.0      5   1.24   2902   2656   3447   5837  10819   2524  136.6  0.319   5260      7  0.000  0.233  0.123  0.000   0.97  65.53   0.49      0   5260     42.8   0.00   0.00   1.25   3.98   4.00   4.00   3.48   3.54   3.86   3.93   1.28   0.00   0.00      0      0      0       0    1915
 1992 365   181   178   20.0      5   1.22   2902   2597   3614   5808  10927   2524  143.2  0.331   5428      7  0.059  0.373  0.138  0.000   0.94  66.59   0.50      0   5428     42.0   0.00   0.00   1.25   3.98   4.00   4.00   3.48   3.54   3.86   3.93   1.28   0.00   0.00      0      0      0       0    1944
 1992 366   182   179   20.0      5   1.20   2902   2557   3761   5779  11033   2524  149.0  0.341   5574      7  0.000  0.000  0.145  0.000   0.92  67.47   0.51      0   5574     41.3   0.00   0.00   1.25   3.98   4.00   4.00   3.48   3.54   3.86   3.93   1.28   0.00   0.00      0      0      0       0    1973
 1993 001   183   180   20.0      5   1.18   2902   2505   3918   5750  11138   2524  155.2  0.352   5731      7  0.000  0.000  0.147  0.000   0.91  68.36   0.51      0   5731     40.5   0.00   0.00   1.25   3.98   4.00   4.00   3.48   3.54   3.86   3.93   1.28   0.00   0.00      0      0      0       0    2002
 1993 002   184   181   20.0      5   1.15   2902   2448   4078   5721  11242   2524  161.6  0.363   5891      7  0.000  0.000  0.151  0.068   0.89  69.22   0.52      0   5891     39.7   0.00   0.00   1.25   3.98   4.00   4.00   3.48   3.54   3.86   3.93   1.28   0.00   0.00      0      0      0       0    2031
 1993 003   185   182   20.0      5   1.13   2902   2387   4241   5693  11343   2524  168.0  0.374   6054      7  0.000  0.000  0.155  0.287   0.87  70.05   0.53      0   6054     39.0   0.00   0.00   1.25   3.98   4.00   4.00   3.48   3.54   3.86   3.93   1.28   0.00   0.00      0      0      0       0    2059
 1993 004   186   183   20.0      5   1.11   2902   2362   4430   5664  11507   2524  175.5  0.385   6243      7  0.000  0.000  0.157  0.270   0.84  70.96   0.54      0   6243     38.2   0.00   0.00   1.25   3.98   4.00   4.00   3.48   3.54   3.86   3.93   1.28   0.00   0.00      0      0      0       0    2088
 1993 005   187   184   20.0      5   1.09   2902   2395   4619   5652  11730   2524  183.0  0.394   6433      7  0.000  0.000  0.163  0.140   0.81  71.81   0.55      0   6433     37.4   0.00   0.00   1.25   4.00   4.00   4.00   3.48   3.54   3.86   3.92   1.28   0.00   0.00      0      0      0       0    2116
 1993 006   188   185   20.0      5   1.06   2902   2459   4809   5656  11983   2524  190.5  0.401   6622      7  0.000  0.000  0.169  0.040   0.77  72.62   0.55      0   6622     36.6   0.00   0.00   1.25   4.00   4.00   4.00   3.51   3.56   3.87   3.93   1.28   0.00   0.00      0      0      0       0    2144
 1993 007   189   186   20.0      5   1.04   2902   2398   4998   5628  12111   2524  198.0  0.413   6811      7  0.000  0.000  0.185  0.008   0.75  73.38   0.56      0   6811     35.8   0.00   0.00   1.25   4.00   4.00   4.00   3.51   3.56   3.87   3.93   1.28   0.00   0.00      0      0      0       0    2173
 1993 008   190   187   20.0      5   1.01   2902   2403   5187   5602  12305   2524  205.5  0.422   7000      7  0.000  0.000  0.207  0.128   0.72  74.10   0.57      0   7000     34.9   0.00   0.00   1.25   3.99   3.99   3.99   3.50   3.55   3.86   3.91   1.28   0.00   0.00      0      0      0       0    2201
 1993 009   191   188   20.0      5   0.99   2902   2459   5361   5603  12535   2524  212.4  0.428   7174      7  0.000  0.000  0.235  0.073   0.69  74.73   0.57      0   7174     34.0   0.00   0.00   1.25   4.00   4.00   4.00   3.52   3.57   3.87   3.91   1.28   0.00   0.00      0      0      0       0    2229
 1993 010   192   189   20.0      5   0.96   2902   2500   5550   5595  12765   2524  219.9  0.435   7363      7  0.000  0.000  0.274  0.027   0.66  75.38   0.58      0   7363     33.0   0.00   0.00   1.25   4.00   4.00   4.00   3.53   3.58   3.87   3.91   1.28   0.00   0.00      0      0      0       0    2257
 1993 011   193   190   20.0      5   0.93   2902   2529   5739   5581  12984   2524  227.4  0.442   7552      7  0.000  0.000  0.328  0.000   0.64  75.99   0.58      0   7552     32.0   0.00   0.00   1.25   4.00   4.00   4.00   3.54   3.58   3.86   3.90   1.28   0.00   0.00      0      0      0       0    2285
 1993 012   194   191   20.0      5   0.93   2902   2529   5739   5581  12984   2524  227.4  0.442   7552      7  0.000  0.000  0.328  0.000   0.64  75.99   0.58      0   7552     32.0   0.00   0.00   1.25   4.00   4.00   4.00   3.54   3.58   3.86   3.89   1.28   0.00   0.00      0      0      0       0    2285
 1993 013   195   192   20.0      5   0.93   2902   2529   5739   5581  12984   2524  227.4  0.442   7552      7  0.000  0.000  0.328  0.000   0.64  75.99   0.58      0   7552     32.0   0.00   0.00   1.25   4.00   4.00   4.00   3.54   3.58   3.86   3.88   1.28   0.00   0.00      0      0      0       0    2285
 1993 014   196   193   20.0      5   0.93   2902   2529   5739   5581  12984   2524  227.4  0.442   7552      7  0.000  0.000  0.328  0.000   0.64  75.99   0.58      0   7552     32.0   0.00   0.00   1.25   4.00   4.00   4.00   3.53   3.57   3.84   3.87   1.28   0.00   0.00      0      0      0       0    2285
