*GROWTH ASPECTS OUTPUT FILE

*DSSAT Cropping System Model Ver. 4.0.2.000               Aug 03, 2016; 12:58:51

*RUN   1        : UYMZ                    
 MODEL          : MZCER040 - Maize           
 EXPERIMENT     : UYMZ0114 MZ    late to create DSS                             
 TREATMENT  1   : UYMZ                    

@YEAR DOY   DAS   DAP   L#SD   GSTD   LAID   LWAD   SWAD   GWAD   RWAD   CWAD   G#AD   GWGD   HIAD   PWAD   P#AD   WSPD   WSGD   NSTD   EWSD   LN%D   SH%D   HIPD   PWDD   PWTD     SLAD   CHTD   CWID   RDPD   RL1D   RL2D   RL3D   RL4D   RL5D   RL6D   RL7D   RL8D   RL9D   RL10   CDAD   LDAD   SDAD   SNW0C   SNW1C
 1990 194     3     0    0.0      0   0.00      0      0      0      0      0      0    0.0  0.000      0      0  0.000  0.000  0.000  0.000   0.00   0.00   0.00      0      0      0.0   0.00   0.00   0.03   0.00   0.00   0.00   0.00   0.00   0.00   0.00   0.00   0.00   0.00      0      0      0       0       0
 1990 195     4     1    0.0      0   0.00      0      0      0      0      0      0    0.0  0.000      0      0  0.000  0.000  0.000  0.000   0.00   0.00   0.00      0      0      0.0   0.00   0.00   0.03   0.00   0.00   0.00   0.00   0.00   0.00   0.00   0.00   0.00   0.00      0      0      0       0       0
 1990 196     5     2    0.0      0   0.00      0      0      0      0      0      0    0.0  0.000      0      0  0.000  0.000  0.000  0.000   0.00   0.00   0.00      0      0      0.0   0.00   0.00   0.04   0.00   0.00   0.00   0.00   0.00   0.00   0.00   0.00   0.00   0.00      0      0      0       0       0
 1990 197     6     3    0.0      0   0.00      0      0      0      0      0      0    0.0  0.000      0      0  0.000  0.000  0.000  0.000   0.00   0.00   0.00      0      0      0.0   0.00   0.00   0.05   0.00   0.00   0.00   0.00   0.00   0.00   0.00   0.00   0.00   0.00      0      0      0       0       0
 1990 198     7     4    0.0      0   0.00      0      0      0      0      0      0    0.0  0.000      0      0  0.000  0.000  0.000  0.000   0.00   0.00   0.00      0      0      0.0   0.00   0.00   0.06   0.00   0.00   0.00   0.00   0.00   0.00   0.00   0.00   0.00   0.00      0      0      0       0       0
 1990 199     8     5    0.0      0   0.00      0      0      0      0      0      0    0.0  0.000      0      0  0.000  0.000  0.000  0.000   0.00   0.00   0.00      0      0      0.0   0.00   0.00   0.06   0.00   0.00   0.00   0.00   0.00   0.00   0.00   0.00   0.00   0.00      0      0      0       0       0
 1990 200     9     6    0.0      0   0.00      0      0      0      0      0      0    0.0  0.000      0      0  0.000  0.000  0.000  0.000   0.00   0.00   0.00      0      0      0.0   0.00   0.00   0.06   0.00   0.00   0.00   0.00   0.00   0.00   0.00   0.00   0.00   0.00      0      0      0       0       0
 1990 201    10     7    0.0      0   0.00      0      0      0      0      0      0    0.0  0.000      0      0  0.000  0.000  0.000  0.000   0.00   0.00   0.00      0      0      0.0   0.00   0.00   0.06   0.00   0.00   0.00   0.00   0.00   0.00   0.00   0.00   0.00   0.00      0      0      0       0       0
 1990 202    11     8    0.0      0   0.00      0      0      0      0      0      0    0.0  0.000      0      0  0.000  0.000  0.000  0.000   0.00   0.00   0.00      0      0      0.0   0.00   0.00   0.06   0.00   0.00   0.00   0.00   0.00   0.00   0.00   0.00   0.00   0.00      0      0      0       0       0
 1990 203    12     9    0.0      0   0.00      0      0      0      0      0      0    0.0  0.000      0      0  0.000  0.000  0.000  0.000   0.00   0.00   0.00      0      0      0.0   0.00   0.00   0.06   0.00   0.00   0.00   0.00   0.00   0.00   0.00   0.00   0.00   0.00      0      0      0       0       0
 1990 204    13    10    0.0      0   0.00      0      0      0      0      0      0    0.0  0.000      0      0  0.000  0.000  0.000  0.000   0.00   0.00   0.00      0      0      0.0   0.00   0.00   0.06   0.00   0.00   0.00   0.00   0.00   0.00   0.00   0.00   0.00   0.00      0      0      0       0       0
 1990 205    14    11    0.0      0   0.00      0      0      0      0      0      0    0.0  0.000      0      0  0.000  0.000  0.000  0.000   0.00   0.00   0.00      0      0      0.0   0.00   0.00   0.06   0.00   0.00   0.00   0.00   0.00   0.00   0.00   0.00   0.00   0.00      0      0      0       0       0
 1990 206    15    12    0.0      0   0.00      0      0      0      0      0      0    0.0  0.000      0      0  0.000  0.000  0.000  0.000   0.00   0.00   0.00      0      0      0.0   0.00   0.00   0.06   0.00   0.00   0.00   0.00   0.00   0.00   0.00   0.00   0.00   0.00      0      0      0       0       0
 1990 207    16    13    0.0      0   0.00      0      0      0      0      0      0    0.0  0.000      0      0  0.000  0.000  0.000  0.000   0.00   0.00   0.00      0      0      0.0   0.00   0.00   0.06   0.00   0.00   0.00   0.00   0.00   0.00   0.00   0.00   0.00   0.00      0      0      0       0       0
 1990 208    17    14    0.0      0   0.00      0      0      0      0      0      0    0.0  0.000      0      0  0.000  0.000  0.000  0.000   0.00   0.00   0.00      0      0      0.0   0.00   0.00   0.07   0.00   0.00   0.00   0.00   0.00   0.00   0.00   0.00   0.00   0.00      0      0      0       0       0
 1990 209    18    15    0.0      0   0.00      0      0      0      0      0      0    0.0  0.000      0      0  0.000  0.000  0.000  0.000   0.00   0.00   0.00      0      0      0.0   0.00   0.00   0.07   0.00   0.00   0.00   0.00   0.00   0.00   0.00   0.00   0.00   0.00      0      0      0       0       0
 1990 210    19    16    0.0      0   0.00      0      0      0      0      0      0    0.0  0.000      0      0  0.000  0.000  0.000  0.000   0.00   0.00   0.00      0      0      0.0   0.00   0.00   0.07   0.00   0.00   0.00   0.00   0.00   0.00   0.00   0.00   0.00   0.00      0      0      0       0       0
 1990 211    20    17    0.0      0   0.00      0      0      0      0      0      0    0.0  0.000      0      0  0.000  0.000  0.000  0.000   0.00   0.00   0.00      0      0      0.0   0.00   0.00   0.07   0.00   0.00   0.00   0.00   0.00   0.00   0.00   0.00   0.00   0.00      0      0      0       0       0
 1990 212    21    18    0.0      0   0.00      0      0      0      0      0      0    0.0  0.000      0      0  0.000  0.000  0.000  0.000   0.00   0.00   0.00      0      0      0.0   0.00   0.00   0.07   0.00   0.00   0.00   0.00   0.00   0.00   0.00   0.00   0.00   0.00      0      0      0       0       0
 1990 213    22    19    0.0      0   0.00      0      0      0      0      0      0    0.0  0.000      0      0  0.000  0.000  0.000  0.000   0.00   0.00   0.00      0      0      0.0   0.00   0.00   0.08   0.00   0.00   0.00   0.00   0.00   0.00   0.00   0.00   0.00   0.00      0      0      0       0       0
 1990 214    23    20    0.0      0   0.00      0      0      0      0      0      0    0.0  0.000      0      0  0.000  0.000  0.000  0.000   0.00   0.00   0.00      0      0      0.0   0.00   0.00   0.08   0.00   0.00   0.00   0.00   0.00   0.00   0.00   0.00   0.00   0.00      0      0      0       0       0
 1990 215    24    21    0.0      0   0.00      0      0      0      0      0      0    0.0  0.000      0      0  0.000  0.000  0.000  0.000   0.00   0.00   0.00      0      0      0.0   0.00   0.00   0.09   0.00   0.00   0.00   0.00   0.00   0.00   0.00   0.00   0.00   0.00      0      0      0       0       0
 1990 216    25    22    0.0      0   0.00      0      0      0      0      0      0    0.0  0.000      0      0  0.000  0.000  0.000  0.000   0.00   0.00   0.00      0      0      0.0   0.00   0.00   0.10   0.00   0.00   0.00   0.00   0.00   0.00   0.00   0.00   0.00   0.00      0      0      0       0       0
 1990 217    26    23    0.0      0   0.00      0      0      0      0      0      0    0.0  0.000      0      0  0.000  0.000  0.000  0.000   0.00   0.00   0.00      0      0      0.0   0.00   0.00   0.12   0.00   0.00   0.00   0.00   0.00   0.00   0.00   0.00   0.00   0.00      0      0      0       0       0
 1990 218    27    24    1.0      1   0.00     14     14      0     14     28      0    0.0  0.000      0      0  0.000  0.000  0.012  0.000   4.40   0.00   0.00      0      0     21.0   0.00   0.00   0.13   0.28   0.10   0.00   0.00   0.00   0.00   0.00   0.00   0.00   0.00      0      0      0       0       0
 1990 219    28    25    2.0      1   0.01     14     14      0     14     28      0    0.0  0.000      0      0  0.000  0.000  0.014  0.000   4.52   0.00   0.00      0      0     42.6   0.00   0.00   0.14   0.28   0.10   0.00   0.00   0.00   0.00   0.00   0.00   0.00   0.00      0      0      0       0       0
 1990 220    29    26    2.0      1   0.01     14     14      0     15     28      0    0.0  0.000      0      0  0.000  0.000  0.000  0.000   4.49   0.00   0.00      0      0     64.3   0.00   0.00   0.15   0.29   0.11   0.00   0.00   0.00   0.00   0.00   0.00   0.00   0.00      0      0      0       0       0
 1990 221    30    27    3.0      1   0.01     14     14      0     16     28      0    0.0  0.000      0      0  0.000  0.000  0.000  0.000   4.47   0.00   0.00      0      0     80.2   0.00   0.00   0.16   0.30   0.13   0.00   0.00   0.00   0.00   0.00   0.00   0.00   0.00      0      0      0       0       0
 1990 222    31    28    3.0      1   0.01     14     14      0     18     28      0    0.0  0.000      0      0  0.000  0.000  0.000  0.000   4.45   0.00   0.00      0      0     98.0   0.00   0.00   0.17   0.31   0.14   0.00   0.00   0.00   0.00   0.00   0.00   0.00   0.00      0      0      0       0       0
 1990 223    32    29    3.0      1   0.02     14     14      0     19     28      0    0.0  0.000      0      0  0.000  0.000  0.000  0.000   4.41   0.00   0.00      0      0    128.1   0.00   0.00   0.18   0.32   0.17   0.01   0.00   0.00   0.00   0.00   0.00   0.00   0.00      0      0      0       0       0
 1990 224    33    30    4.0      1   0.03     14     14      0     22     28      0    0.0  0.000      0      0  0.000  0.000  0.000  0.000   4.38   0.00   0.00      0      0    230.1   0.00   0.00   0.19   0.34   0.19   0.01   0.00   0.00   0.00   0.00   0.00   0.00   0.00      0      0      0       0       0
 1990 225    34    31    4.0      1   0.05     14     14      0     26     28      0    0.0  0.000      0      0  0.000  0.000  0.000  0.000   4.33   0.00   0.00      0      0    342.7   0.00   0.00   0.20   0.37   0.23   0.03   0.00   0.00   0.00   0.00   0.00   0.00   0.00      0      0      0       0       1
 1990 226    35    32    4.0      1   0.07     21     14      0     26     35      0    0.0  0.000      0      0  0.000  0.000  0.000  0.000   3.50   0.00   0.00      0      0    317.0   0.00   0.00   0.22   0.38   0.24   0.03   0.00   0.00   0.00   0.00   0.00   0.00   0.00      0      0      0       0       1
 1990 227    36    33    5.0      1   0.07     24     14      0     28     38      0    0.0  0.000      0      0  0.000  0.000  0.000  0.000   3.96   0.00   0.00      0      0    308.3   0.00   0.00   0.22   0.38   0.25   0.04   0.00   0.00   0.00   0.00   0.00   0.00   0.00      0      0      0       0       1
 1990 228    37    34    5.0      1   0.08     28     14      0     35     42      0    0.0  0.000      0      0  0.000  0.000  0.000  0.000   3.88   0.00   0.00      0      0    298.8   0.00   0.00   0.23   0.41   0.33   0.07   0.00   0.00   0.00   0.00   0.00   0.00   0.00      0      0      0       0       1
 1990 229    38    35    5.0      1   0.10     33     14      0     44     47      0    0.0  0.000      0      0  0.000  0.000  0.000  0.000   3.80   0.00   0.00      0      0    288.6   0.00   0.00   0.23   0.45   0.42   0.12   0.00   0.00   0.00   0.00   0.00   0.00   0.00      0      0      0       0       1
 1990 230    39    36    5.0      1   0.11     38     14      0     55     52      0    0.0  0.000      0      0  0.000  0.000  0.000  0.000   3.86   0.00   0.00      0      0    280.7   0.00   0.00   0.24   0.50   0.52   0.17   0.00   0.00   0.00   0.00   0.00   0.00   0.00      0      0      0       0       1
 1990 231    40    37    5.0      1   0.12     44     14      0     63     58      0    0.0  0.000      0      0  0.000  0.000  0.000  0.000   3.75   0.00   0.00      0      0    271.5   0.00   0.00   0.25   0.54   0.59   0.22   0.00   0.00   0.00   0.00   0.00   0.00   0.00      0      0      0       0       1
 1990 232    41    38    5.0      1   0.14     52     14      0     77     66      0    0.0  0.000      0      0  0.000  0.000  0.000  0.000   3.73   0.00   0.00      0      0    262.9   0.00   0.00   0.25   0.60   0.71   0.29   0.00   0.00   0.00   0.00   0.00   0.00   0.00      0      0      0       0       2
 1990 233    42    39    6.0      1   0.15     58     14      0     90     72      0    0.0  0.000      0      0  0.000  0.000  0.000  0.000   3.83   0.00   0.00      0      0    256.8   0.00   0.00   0.26   0.66   0.82   0.37   0.00   0.00   0.00   0.00   0.00   0.00   0.00      0      0      0       0       2
 1990 234    43    40    6.0      1   0.16     64     14      0    102     78      0    0.0  0.000      0      0  0.000  0.000  0.000  0.000   3.86   0.00   0.00      0      0    251.6   0.00   0.00   0.27   0.72   0.92   0.44   0.00   0.00   0.00   0.00   0.00   0.00   0.00      0      0      0       0       3
 1990 235    44    41    6.0      1   0.16     67     14      0    115     81      0    0.0  0.000      0      0  0.000  0.000  0.000  0.000   4.03   0.00   0.00      0      0    243.1   0.00   0.00   0.27   0.78   1.02   0.52   0.00   0.00   0.00   0.00   0.00   0.00   0.00      0      0      0       0       3
 1990 236    45    42    6.0      1   0.16     71     14      0    124     85      0    0.0  0.000      0      0  0.000  0.000  0.000  0.000   3.98   0.00   0.00      0      0    228.2   0.00   0.00   0.27   0.83   1.09   0.58   0.00   0.00   0.00   0.00   0.00   0.00   0.00      0      0      0       0       4
 1990 237    46    43    6.0      1   0.19     83     14      0    135     97      0    0.0  0.000      0      0  0.000  0.000  0.000  0.000   3.63   0.00   0.00      0      0    223.7   0.00   0.00   0.28   0.88   1.17   0.65   0.00   0.00   0.00   0.00   0.00   0.00   0.00      0      0      0       0       4
 1990 238    47    44    7.0      1   0.22     99     14      0    152    113      0    0.0  0.000      0      0  0.000  0.000  0.000  0.000   3.54   0.00   0.00      0      0    218.5   0.00   0.00   0.29   0.97   1.29   0.76   0.00   0.00   0.00   0.00   0.00   0.00   0.00      0      0      0       0       5
 1990 239    48    45    7.0      1   0.23    105     14      0    158    119      0    0.0  0.000      0      0  0.000  0.000  0.000  0.000   3.92   0.00   0.00      0      0    216.3   0.00   0.00   0.29   0.95   1.30   0.79   0.00   0.00   0.00   0.00   0.00   0.00   0.00      0      0      0       0       6
 1990 240    49    46    7.0      1   0.19    105     14      0    162    119      0    0.0  0.000      0      0  0.000  0.000  0.000  0.000   4.11   0.00   0.00      0      0    181.7   0.00   0.00   0.29   0.94   1.31   0.81   0.00   0.00   0.00   0.00   0.00   0.00   0.00      0      0      0       0       7
 1990 241    50    47    7.0      1   0.09    107     14      0    172    121      0    0.0  0.000      0      0  0.000  0.000  0.000  0.000   4.03   0.00   0.00      0      0     87.5   0.00   0.00   0.30   0.95   1.38   0.89   0.00   0.00   0.00   0.00   0.00   0.00   0.00      0      0      0       0       7
 1990 242    51    48    7.0      1   0.10    116     14      0    180    130      0    0.0  0.000      0      0  0.000  0.000  0.000  0.000   3.76   0.00   0.00      0      0     85.7   0.00   0.00   0.30   0.97   1.43   0.95   0.00   0.00   0.00   0.00   0.00   0.00   0.00      0      0      0       0       7
 1990 243    52    49    7.0      1   0.10    117     14      0    180    131      0    0.0  0.000      0      0  0.000  0.000  0.008  0.000   4.05   0.00   0.00      0      0     86.5   0.00   0.00   0.30   0.95   1.41   0.94   0.00   0.00   0.00   0.00   0.00   0.00   0.00      0      0      0       0       7
 1990 244    53    50    7.0      1   0.07    117     14      0    180    131      0    0.0  0.000      0      0  0.000  0.000  0.000  0.000   4.09   0.00   0.00      0      0     63.1   0.00   0.00   0.30   0.94   1.40   0.94   0.00   0.00   0.00   0.00   0.00   0.00   0.00      0      0      0       0       8
 1990 245    54    51    7.0      1   0.02    117     14      0    180    131      0    0.0  0.000      0      0  0.000  0.000  0.000  0.000   4.08   0.00   0.00      0      0     19.8   0.00   0.00   0.30   0.94   1.40   0.94   0.00   0.00   0.00   0.00   0.00   0.00   0.00      0      0      0       0       9
 1990 246    55    52    7.0      1   0.03    122     14      0    180    136      0    0.0  0.000      0      0  0.000  0.000  0.000  0.000   3.93   0.00   0.00      0      0     23.0   0.00   0.00   0.30   0.93   1.39   0.94   0.00   0.00   0.00   0.00   0.00   0.00   0.00      0      0      0       0       9
 1990 247    56    53    7.0      1   0.04    129     14      0    180    143      0    0.0  0.000      0      0  0.000  0.000  0.000  0.000   3.89   0.00   0.00      0      0     30.8   0.00   0.00   0.30   0.93   1.39   0.94   0.00   0.00   0.00   0.00   0.00   0.00   0.00      0      0      0       0      10
 1990 248    57    54    7.0      1   0.06    131     14      0    179    145      0    0.0  0.000      0      0  0.000  0.000  0.000  0.000   4.00   0.00   0.00      0      0     48.4   0.00   0.00   0.31   0.92   1.38   0.94   0.00   0.00   0.00   0.00   0.00   0.00   0.00      0      0      0       0      11
 1990 249    58    55    7.0      1   0.07    134     14      0    179    148      0    0.0  0.000      0      0  0.000  0.000  0.000  0.000   3.96   0.00   0.00      0      0     51.5   0.00   0.00   0.31   0.92   1.38   0.94   0.00   0.00   0.00   0.00   0.00   0.00   0.00      0      0      0       0      12
 1990 250    59    56    8.0      1   0.08    137     14      0    179    151      0    0.0  0.000      0      0  0.000  0.000  0.000  0.000   3.94   0.00   0.00      0      0     54.9   0.00   0.00   0.32   0.92   1.38   0.94   0.00   0.00   0.00   0.00   0.00   0.00   0.00      0      0      0       0      13
 1990 251    60    57    8.0      1   0.08    140     14      0    179    154      0    0.0  0.000      0      0  0.000  0.000  0.000  0.000   3.95   0.00   0.00      0      0     57.5   0.00   0.00   0.32   0.90   1.35   0.92   0.00   0.00   0.00   0.00   0.00   0.00   0.00      0      0      0       0      14
 1990 252    61    58    8.0      1   0.12    159     14      0    181    173      0    0.0  0.000      0      0  0.000  0.000  0.000  0.000   3.55   0.00   0.00      0      0     73.0   0.00   0.00   0.33   0.89   1.35   0.93   0.00   0.00   0.00   0.00   0.00   0.00   0.00      0      0      0       0      15
 1990 253    62    59    8.0      1   0.15    180     14      0    184    194      0    0.0  0.000      0      0  0.000  0.000  0.000  0.000   3.54   0.00   0.00      0      0     85.6   0.00   0.00   0.34   0.88   1.36   0.95   0.00   0.00   0.00   0.00   0.00   0.00   0.00      0      0      0       0      16
 1990 254    63    60    8.0      1   0.18    197     14      0    186    211      0    0.0  0.000      0      0  0.000  0.000  0.000  0.001   3.63   0.00   0.00      0      0     93.5   0.00   0.00   0.35   0.84   1.31   0.93   0.00   0.00   0.00   0.00   0.00   0.00   0.00      0      0      0       0      16
 1990 255    64    61    8.0      1   0.22    216     14      0    189    230      0    0.0  0.000      0      0  0.000  0.000  0.000  0.001   3.62   0.00   0.00      0      0     99.8   0.00   0.00   0.35   0.81   1.29   0.93   0.01   0.00   0.00   0.00   0.00   0.00   0.00      0      0      0       0      17
 1990 256    65    62    9.0      1   0.21    230     14      0    191    244      0    0.0  0.000      0      0  0.000  0.000  0.000  0.000   3.71   0.00   0.00      0      0     92.8   0.00   0.00   0.35   0.80   1.28   0.93   0.01   0.00   0.00   0.00   0.00   0.00   0.00      0      0      0       0      18
 1990 257    66    63    9.0      1   0.17    252     14      0    194    266      0    0.0  0.000      0      0  0.000  0.000  0.000  0.000   3.62   0.00   0.00      0      0     69.2   0.00   0.00   0.36   0.79   1.28   0.95   0.01   0.00   0.00   0.00   0.00   0.00   0.00      0      0      0       0      19
 1990 258    67    64    9.0      1   0.18    286     14      0    200    300      0    0.0  0.000      0      0  0.000  0.000  0.000  0.000   3.48   0.00   0.00      0      0     63.1   0.00   0.00   0.36   0.79   1.31   1.00   0.02   0.00   0.00   0.00   0.00   0.00   0.00      0      0      0       0      20
 1990 259    68    65    9.0      1   0.22    310     14      0    213    324      0    0.0  0.000      0      0  0.000  0.000  0.000  0.000   3.62   0.00   0.00      0      0     69.9   0.00   0.00   0.37   0.79   1.37   1.11   0.03   0.00   0.00   0.00   0.00   0.00   0.00      0      0      0       0      21
 1990 260    69    66    9.0      1   0.25    331     14      0    217    345      0    0.0  0.000      0      0  0.000  0.000  0.000  0.000   3.66   0.00   0.00      0      0     74.9   0.00   0.00   0.37   0.79   1.39   1.15   0.04   0.00   0.00   0.00   0.00   0.00   0.00      0      0      0       0      22
 1990 261    70    67    9.0      2   0.29    329     14      0    234    343      0    0.0  0.000      0      0  0.000  0.000  0.000  0.008   3.90   0.00   0.00      0      0     87.2   0.00   0.00   0.38   0.75   1.39   1.23   0.06   0.00   0.00   0.00   0.00   0.00   0.00      0      0      0       0      23
 1990 262    71    68    9.0      2   0.32    353     14      0    249    367      0    0.0  0.000      0      0  0.000  0.000  0.002  0.007   3.64   0.00   0.00      0      0     91.9   0.00   0.00   0.39   0.73   1.41   1.32   0.08   0.00   0.00   0.00   0.00   0.00   0.00      0      0      0       0      25
 1990 263    72    69   10.0      2   0.36    374     14      0    251    388      0    0.0  0.000      0      0  0.000  0.000  0.000  0.005   3.61   0.00   0.00      0      0     95.5   0.00   0.00   0.39   0.71   1.39   1.33   0.08   0.00   0.00   0.00   0.00   0.00   0.00      0      0      0       0      26
 1990 264    73    70   10.0      2   0.39    397     14      0    255    411      0    0.0  0.000      0      0  0.000  0.000  0.000  0.003   3.78   0.00   0.00      0      0     98.8   0.00   0.00   0.40   0.70   1.39   1.35   0.09   0.00   0.00   0.00   0.00   0.00   0.00      0      0      0       0      27
 1990 265    74    71   10.0      3   0.43    426     14      0    298    440      0    0.0  0.000      0      0  0.000  0.000  0.022  0.001   3.68   0.00   0.00      0      0    100.6   0.00   0.00   0.41   0.70   1.55   1.71   0.17   0.00   0.00   0.00   0.00   0.00   0.00      0      0      0       0      28
 1990 266    75    72   10.0      3   0.44    435     14      0    323    449      0    0.0  0.000      0      0  0.000  0.000  0.022  0.000   3.66   0.00   0.00      0      0    101.3   0.00   0.00   0.41   0.70   1.64   1.92   0.22   0.00   0.00   0.00   0.00   0.00   0.00      0      0      0       0      30
 1990 267    76    73   10.0      3   0.42    446     14      0    358    460      0    0.0  0.000      0      0  0.000  0.000  0.022  0.000   3.65   0.00   0.00      0      0     94.4   0.00   0.00   0.41   0.70   1.77   2.22   0.30   0.00   0.00   0.00   0.00   0.00   0.00      0      0      0       0      31
 1990 268    77    74   10.0      3   0.40    460     14      0    398    474      0    0.0  0.000      0      0  0.000  0.000  0.022  0.000   3.63   0.00   0.00      0      0     87.9   0.00   0.00   0.42   0.70   1.91   2.56   0.39   0.00   0.00   0.00   0.00   0.00   0.00      0      0      0       0      33
 1990 269    78    75   10.0      3   0.45    491     14      0    451    505      0    0.0  0.000      0      0  0.000  0.000  0.022  0.000   3.56   0.00   0.00      0      0     90.7   0.00   0.00   0.42   0.71   2.10   3.01   0.51   0.00   0.00   0.00   0.00   0.00   0.00      0      0      0       0      35
 1990 270    79    76   11.0      3   0.51    540     15      0    493    555      0    0.0  0.000      0      0  0.000  0.000  0.022  0.000   3.53   0.00   0.00      0      0     95.3   0.00   0.00   0.43   0.73   2.25   3.36   0.62   0.00   0.00   0.00   0.00   0.00   0.00      0      0      0       0      37
 1990 271    80    77   11.0      3   0.58    584     16      0    493    600      0    0.0  0.000      0      0  0.000  0.000  0.022  0.000   3.50   0.00   0.00      0      0     98.5   0.00   0.00   0.44   0.72   2.25   3.36   0.62   0.00   0.00   0.00   0.00   0.00   0.00      0      0      0       0      40
 1990 272    81    78   11.0      3   0.64    633     17      0    543    650      0    0.0  0.000      0      0  0.000  0.000  0.022  0.000   3.47   0.00   0.00      0      0    101.3   0.00   0.00   0.45   0.74   2.41   3.75   0.77   0.00   0.00   0.00   0.00   0.00   0.00      0      0      0       0      42
 1990 273    82    79   11.0      3   0.71    688     19      0    596    707      0    0.0  0.000      0      0  0.000  0.000  0.022  0.000   3.44   0.00   0.00      0      0    103.8   0.00   0.00   0.46   0.75   2.57   4.00   0.94   0.00   0.00   0.00   0.00   0.00   0.00      0      0      0       0      45
 1990 274    83    80   12.0      3   0.84    781     25      0    646    806      0    0.0  0.000      0      0  0.000  0.000  0.022  0.000   3.41   0.00   0.00      0      0    107.1   0.00   0.00   0.46   0.75   2.70   4.00   1.10   0.00   0.00   0.00   0.00   0.00   0.00      0      0      0       0      48
 1990 275    84    81   12.0      3   0.93    857     30      0    729    888      0    0.0  0.000      0      0  0.000  0.000  0.022  0.000   3.37   0.00   0.00      0      0    108.9   0.00   0.00   0.46   0.76   2.90   4.00   1.41   0.00   0.00   0.00   0.00   0.00   0.00      0      0      0       0      51
 1990 276    85    82   12.0      3   1.05    951     40      0    798    991      0    0.0  0.000      0      0  0.000  0.000  0.022  0.000   3.34   0.00   0.00      0      0    110.5   0.00   0.00   0.46   0.77   3.02   4.00   1.71   0.00   0.00   0.00   0.00   0.00   0.00      0      0      0       0      55
 1990 277    86    83   13.0      3   1.20   1077     57      0    831   1134      0    0.0  0.000      0      0  0.000  0.000  0.022  0.000   3.29   0.00   0.00      0      0    111.9   0.00   0.00   0.46   0.78   3.04   4.00   1.90   0.00   0.00   0.00   0.00   0.00   0.00      0      0      0       0      59
 1990 278    87    84   13.0      3   1.29   1149     69      0    832   1219      0    0.0  0.000      0      0  0.000  0.000  0.022  0.000   3.26   0.00   0.00      0      0    112.3   0.00   0.00   0.46   0.78   3.03   4.00   1.92   0.00   0.00   0.00   0.00   0.00   0.00      0      0      0       0      63
 1990 279    88    85   13.0      3   1.40   1246     89      0    834   1335      0    0.0  0.000      0      0  0.000  0.000  0.022  0.000   3.22   0.00   0.00      0      0    112.6   0.00   0.00   0.46   0.78   3.02   4.00   1.96   0.00   0.00   0.00   0.00   0.00   0.00      0      0      0       0      67
 1990 280    89    86   13.0      3   1.49   1321    107      0    835   1428      0    0.0  0.000      0      0  0.000  0.000  0.022  0.000   3.18   0.00   0.00      0      0    112.7   0.00   0.00   0.46   0.78   3.01   3.99   2.00   0.00   0.00   0.00   0.00   0.00   0.00      0      0      0       0      71
 1990 281    90    87   14.0      3   1.58   1398    128      0    867   1526      0    0.0  0.000      0      0  0.000  0.000  0.022  0.000   3.03   0.00   0.00      0      0    112.7   0.00   0.00   0.46   0.76   2.85   3.76   2.26   0.00   0.00   0.00   0.00   0.00   0.00      0      0      0       0      76
 1990 282    91    88   14.0      3   1.65   1466    149      0    997   1614      0    0.0  0.000      0      0  0.000  0.000  0.022  0.000   2.91   0.00   0.00      0      0    112.6   0.00   0.00   0.46   0.87   2.87   3.72   3.60   0.00   0.00   0.00   0.00   0.00   0.00      0      0      0       0      80
 1990 283    92    89   14.0      3   1.73   1542    174      0   1105   1716      0    0.0  0.000      0      0  0.000  0.000  0.023  0.000   2.77   0.00   0.00      0      0    112.4   0.00   0.00   0.46   0.97   2.92   3.73   4.00   0.00   0.00   0.00   0.00   0.00   0.00      0      0      0       0      85
 1990 284    93    90   14.0      3   1.83   1631    208      0   1109   1839      0    0.0  0.000      0      0  0.000  0.000  0.027  0.000   2.64   0.00   0.00      0      0    112.1   0.00   0.00   0.46   0.97   2.88   3.67   4.00   0.00   0.00   0.00   0.00   0.00   0.00      0      0      0       0      90
 1990 285    94    91   15.0      3   1.89   1695    234      0   1264   1929      0    0.0  0.000      0      0  0.000  0.000  0.031  0.000   2.54   0.00   0.00      0      0    111.8   0.00   0.00   0.46   1.17   2.96   3.66   4.00   0.00   0.00   0.00   0.00   0.00   0.00      0      0      0       0      96
 1990 286    95    92   15.0      3   1.95   1751    259      0   1429   2010      0    0.0  0.000      0      0  0.000  0.000  0.039  0.000   2.45   0.00   0.00      0      0    111.2   0.00   0.00   0.46   1.47   3.18   3.79   4.00   0.00   0.00   0.00   0.00   0.00   0.00      0      0      0       0     102
 1990 287    96    93   15.0      3   2.02   1828    296      0   1567   2124      0    0.0  0.000      0      0  0.000  0.000  0.044  0.000   2.34   0.00   0.00      0      0    110.6   0.00   0.00   0.46   1.77   3.43   3.97   4.00   0.00   0.00   0.00   0.00   0.00   0.00      0      0      0       0     109
 1990 288    97    94   15.0      3   2.07   1882    324      0   1727   2207      0    0.0  0.000      0      0  0.000  0.000  0.049  0.000   2.27   0.00   0.00      0      0    110.0   0.00   0.00   0.46   2.19   3.82   4.00   4.00   0.00   0.00   0.00   0.00   0.00   0.00      0      0      0       0     117
 1990 289    98    95   15.0      3   2.10   1926    348      0   1902   2275      0    0.0  0.000      0      0  0.000  0.000  0.057  0.000   2.22   0.00   0.00      0      0    108.9   0.00   0.00   0.46   2.72   4.00   4.00   4.00   0.00   0.00   0.00   0.00   0.00   0.00      0      0      0       0     126
 1990 290    99    96   15.0      3   2.14   1985    382      0   1971   2367      0    0.0  0.000      0      0  0.000  0.000  0.062  0.000   2.15   0.00   0.00      0      0    108.1   0.00   0.00   0.46   2.96   4.00   4.00   4.00   0.00   0.00   0.00   0.00   0.00   0.00      0      0      0       0     135
 1990 291   100    97   16.0      3   2.23   2077    442      0   2088   2519      0    0.0  0.000      0      0  0.000  0.000  0.065  0.000   2.03   0.00   0.00      0      0    107.2   0.00   0.00   0.46   3.42   4.00   4.00   4.00   0.00   0.00   0.00   0.00   0.00   0.00      0      0      0       0     145
 1990 292   101    98   16.0      3   2.31   2172    509      0   2140   2681      0    0.0  0.000      0      0  0.000  0.000  0.070  0.000   1.92   0.00   0.00      0      0    106.3   0.00   0.00   0.46   3.68   4.00   4.00   4.00   0.00   0.00   0.00   0.00   0.00   0.00      0      0      0       0     156
 1990 293   102    99   16.0      3   2.38   2264    581      0   2184   2845      0    0.0  0.000      0      0  0.000  0.000  0.081  0.000   1.82   0.00   0.00      0      0    105.3   0.00   0.00   0.46   3.92   4.00   4.00   4.00   0.00   0.00   0.00   0.00   0.00   0.00      0      0      0       0     166
 1990 294   103   100   17.0      3   2.44   2349    653      0   2278   3002      0    0.0  0.000      0      0  0.000  0.000  0.094  0.000   1.74   0.00   0.00      0      0    104.1   0.00   0.00   0.46   4.00   4.00   4.00   4.00   0.00   0.00   0.00   0.00   0.00   0.00      0      0      0       0     177
 1990 295   104   101   17.0      3   2.50   2430    728      0   2412   3158      0    0.0  0.000      0      0  0.000  0.000  0.107  0.000   1.66   0.00   0.00      0      0    102.7   0.00   0.00   0.46   4.00   4.00   4.00   4.00   0.00   0.00   0.00   0.00   0.00   0.00      0      0      0       0     189
 1990 296   105   102   17.0      3   2.54   2511    809      0   2491   3320      0    0.0  0.000      0      0  0.000  0.000  0.118  0.000   1.59   0.00   0.00      0      0    101.3   0.00   0.00   0.46   4.00   4.00   4.00   4.00   0.00   0.00   0.00   0.00   0.00   0.00      0      0      0       0     201
 1990 297   106   103   17.0      3   2.57   2580    882      0   2576   3462      0    0.0  0.000      0      0  0.000  0.000  0.130  0.000   1.53   0.00   0.00      0      0     99.7   0.00   0.00   0.46   4.00   4.00   4.00   4.00   0.00   0.00   0.00   0.00   0.00   0.00      0      0      0       0     213
 1990 298   107   104   18.0      3   2.59   2647    960      0   2605   3607      0    0.0  0.000      0      0  0.000  0.000  0.142  0.000   1.48   0.00   0.00      0      0     98.0   0.00   0.00   0.46   4.00   4.00   4.00   4.00   0.00   0.00   0.00   0.00   0.00   0.00      0      0      0       0     226
 1990 299   108   105   18.0      3   2.72   2816   1103      0   2636   3919      0    0.0  0.000      0      0  0.000  0.000  0.151  0.000   1.37   0.00   0.00      0      0     96.4   0.00   0.00   0.46   4.00   4.00   4.00   4.00   0.00   0.00   0.00   0.00   0.00   0.00      0      0      0       0     239
 1990 300   109   106   18.0      3   2.78   2931   1251      0   2647   4182      0    0.0  0.000      0      0  0.000  0.000  0.158  0.000   1.29   0.00   0.00      0      0     94.7   0.00   0.00   0.46   4.00   4.00   4.00   4.00   0.00   0.00   0.00   0.00   0.00   0.00      0      0      0       0     252
 1990 301   110   107   19.0      3   2.76   2979   1326      0   2641   4305      0    0.0  0.000      0      0  0.000  0.000  0.184  0.000   1.26   0.00   0.00      0      0     92.7   0.00   0.00   0.46   4.00   4.00   4.00   3.99   0.00   0.00   0.00   0.00   0.00   0.00      0      0      0       0     266
 1990 302   111   108   19.0      3   2.75   3036   1435      0   2637   4471      0    0.0  0.000      0      0  0.000  0.000  0.204  0.000   1.21   0.00   0.00      0      0     90.5   0.00   0.00   0.46   4.00   4.00   4.00   3.98   0.00   0.00   0.00   0.00   0.00   0.00      0      0      0       0     279
 1990 303   112   109   20.0      3   2.73   3095   1560      0   2729   4656      0    0.0  0.000      0      0  0.000  0.000  0.213  0.000   1.17   0.00   0.00      0      0     88.3   0.00   0.00   0.46   4.00   4.00   4.00   4.00   0.00   0.00   0.00   0.00   0.00   0.00      0      0      0       0     292
 1990 304   113   110   20.0      3   2.70   3135   1650      0   2842   4785      0    0.0  0.000      0      0  0.000  0.000  0.240  0.000   1.14   0.00   0.00      0      0     86.1   0.00   0.00   0.46   4.00   4.00   4.00   4.00   0.00   0.00   0.00   0.00   0.00   0.00      0      0      0       0     306
 1990 305   114   111   20.0      3   2.66   3172   1742      0   2922   4914      0    0.0  0.000      0      0  0.000  0.000  0.269  0.000   1.12   0.00   0.00      0      0     83.9   0.00   0.00   0.46   4.00   4.00   4.00   4.00   0.00   0.00   0.00   0.00   0.00   0.00      0      0      0       0     320
 1990 306   115   112   21.0      3   2.62   3207   1834      0   2981   5041      0    0.0  0.000      0      0  0.000  0.000  0.277  0.000   1.10   0.00   0.00      0      0     81.7   0.00   0.00   0.46   4.00   4.00   4.00   4.00   0.00   0.00   0.00   0.00   0.00   0.00      0      0      0       0     334
 1990 307   116   113   21.0      3   2.58   3245   1940      0   2974   5185      0    0.0  0.000      0      0  0.000  0.000  0.276  0.000   1.07   0.00   0.00      0      0     79.6   0.00   0.00   0.46   4.00   4.00   4.00   3.99   0.00   0.00   0.00   0.00   0.00   0.00      0      0      0       0     349
 1990 308   117   114   21.0      3   2.53   3266   2001      0   3058   5267      0    0.0  0.000      0      0  0.000  0.000  0.288  0.000   1.06   0.00   0.00      0      0     77.4   0.00   0.00   0.46   4.00   4.00   4.00   4.00   0.00   0.00   0.00   0.00   0.00   0.00      0      0      0       0     364
 1990 309   118   115   21.0      3   2.46   3277   2035      0   3205   5311      0    0.0  0.000      0      0  0.000  0.000  0.310  0.000   1.05   0.00   0.00      0      0     75.2   0.00   0.00   0.46   4.00   4.00   4.00   4.00   0.00   0.00   0.00   0.00   0.00   0.00      0      0      0       0     380
 1990 310   119   116   21.0      3   2.41   3293   2085      0   3265   5378      0    0.0  0.000      0      0  0.000  0.000  0.322  0.000   1.04   0.00   0.00      0      0     73.1   0.00   0.00   0.46   4.00   4.00   4.00   4.00   0.00   0.00   0.00   0.00   0.00   0.00      0      0      0       0     396
 1990 311   120   117   21.0      3   2.36   3316   2155      0   3348   5471      0    0.0  0.000      0      0  0.000  0.000  0.320  0.000   1.03   0.00   0.00      0      0     71.0   0.00   0.00   0.46   4.00   4.00   4.00   4.00   0.00   0.00   0.00   0.00   0.00   0.00      0      0      0       0     412
 1990 312   121   118   21.0      3   2.30   3331   2200      0   3352   5531      0    0.0  0.000      0      0  0.000  0.000  0.325  0.000   1.02   0.00   0.00      0      0     69.0   0.00   0.00   0.46   4.00   4.00   4.00   4.00   0.00   0.00   0.00   0.00   0.00   0.00      0      0      0       0     429
 1990 313   122   119   21.0      3   2.25   3353   2270      0   3387   5623      0    0.0  0.000      0      0  0.000  0.000  0.333  0.000   1.01   0.00   0.00      0      0     67.1   0.00   0.00   0.46   4.00   4.00   4.00   4.00   0.00   0.00   0.00   0.00   0.00   0.00      0      0      0       0     445
 1990 314   123   120   21.0      3   2.20   3377   2343      0   3448   5721      0    0.0  0.000      0      0  0.000  0.000  0.334  0.000   1.00   0.00   0.00      0      0     65.3   0.00   0.00   0.46   4.00   4.00   4.00   4.00   0.00   0.00   0.00   0.00   0.00   0.00      0      0      0       0     462
 1990 315   124   121   21.0      3   2.16   3405   2428      0   3513   5833      0    0.0  0.000      0      0  0.000  0.000  0.341  0.000   0.98   0.00   0.00      0      0     63.5   0.00   0.00   0.46   4.00   4.00   4.00   4.00   0.00   0.00   0.00   0.00   0.00   0.00      0      0      0       0     480
 1990 316   125   122   21.0      3   2.12   3429   2499      0   3518   5928      0    0.0  0.000      0      0  0.000  0.000  0.350  0.000   0.97   0.00   0.00      0      0     61.8   0.00   0.00   0.46   4.00   4.00   4.00   4.00   0.00   0.00   0.00   0.00   0.00   0.00      0      0      0       0     497
 1990 317   126   123   21.0      3   2.09   3467   2614      0   3574   6082      0    0.0  0.000      0      0  0.000  0.000  0.356  0.000   0.95   0.00   0.00      0      0     60.2   0.00   0.00   0.46   4.00   4.00   4.00   4.00   0.00   0.00   0.00   0.00   0.00   0.00      0      0      0       0     515
 1990 318   127   124   21.0      4   2.02   3429   2221      0   3571   6193      0    0.0  0.000    544      0  0.000  0.000  0.358  0.000   1.02   0.00   0.09      0    544     59.0   0.00   0.00   0.46   4.00   4.00   4.00   4.00   0.00   0.00   0.00   0.00   0.00   0.00      0      0      0       0     533
 1990 319   128   125   21.0      4   1.96   3388   2245      0   3557   6239      0    0.0  0.000    606      0  0.000  0.000  0.368  0.000   1.03   0.00   0.10      0    606     57.8   0.00   0.00   0.46   4.00   4.00   4.00   3.98   0.00   0.00   0.00   0.00   0.00   0.00      0      0      0       0     550
 1990 320   129   126   21.0      4   1.90   3346   2271      0   3607   6288      0    0.0  0.000    671      0  0.000  0.000  0.243  0.000   1.04   0.00   0.11      0    671     56.9   0.00   0.00   0.46   4.00   4.00   4.00   4.00   0.00   0.00   0.00   0.00   0.00   0.00      0      0      0       0     568
 1990 321   130   127   21.0      4   1.85   3302   2300      0   3728   6345      0    0.0  0.000    743      0  0.000  0.000  0.222  0.000   1.04   0.00   0.12      0    743     56.2   0.00   0.00   0.46   4.00   4.00   4.00   4.00   0.00   0.00   0.00   0.00   0.00   0.00      0      0      0       0     586
 1990 322   131   128   21.0      4   1.81   3255   2347      0   3814   6462      0    0.0  0.000    860      0  0.000  0.000  0.199  0.000   1.05   0.00   0.13      0    860     55.6   0.00   0.00   0.46   4.00   4.00   4.00   4.00   0.00   0.00   0.00   0.00   0.00   0.00      0      0      0       0     605
 1990 323   132   129   21.0      4   1.77   3205   2411      0   3866   6635      0    0.0  0.000   1019      0  0.000  0.000  0.189  0.000   1.05   0.00   0.15      0   1019     55.1   0.00   0.00   0.46   4.00   4.00   4.00   4.00   0.00   0.00   0.00   0.00   0.00   0.00      0      0      0       0     624
 1990 324   133   130   21.0      4   1.73   3152   2454      0   3853   6733      0    0.0  0.000   1127      0  0.000  0.000  0.180  0.000   1.05   0.00   0.17      0   1127     54.8   0.00   0.00   0.46   4.00   4.00   4.00   3.99   0.00   0.00   0.00   0.00   0.00   0.00      0      0      0       0     643
 1990 325   134   131   21.0      4   1.69   3096   2509      0   3944   6870      0    0.0  0.000   1265      0  0.000  0.000  0.173  0.000   1.06   0.00   0.18      0   1265     54.6   0.00   0.00   0.46   4.00   4.00   4.00   4.00   0.00   0.00   0.00   0.00   0.00   0.00      0      0      0       0     663
 1990 326   135   132   21.0      4   1.65   3038   2558      0   4026   6984      0    0.0  0.000   1388      0  0.000  0.000  0.165  0.000   1.16   0.00   0.20      0   1388     54.5   0.00   0.00   0.46   4.00   4.00   4.00   3.99   0.00   0.00   0.00   0.00   0.00   0.00      0      0      0       0     682
 1990 327   136   133   21.0      4   1.63   2977   2614      0   4116   7119      0    0.0  0.000   1528      0  0.000  0.000  0.125  0.000   1.20   0.00   0.21      0   1528     54.7   0.00   0.00   0.46   4.00   4.00   4.00   3.98   0.00   0.00   0.00   0.00   0.00   0.00      0      0      0       0     702
 1990 328   137   134   21.0      4   1.61   2914   2680      0   4161   7287      0    0.0  0.000   1693      0  0.000  0.000  0.109  0.000   1.21   0.00   0.23      0   1693     55.1   0.00   0.00   0.46   4.00   4.00   4.00   3.98   0.00   0.00   0.00   0.00   0.00   0.00      0      0      0       0     723
 1990 329   138   135   21.0      5   1.57   2914   2680    199   4155   7486   2022    9.8  0.027   1892      7  0.000  0.000  0.175  0.000   1.18  10.50   0.25      0   1892     53.9   0.00   0.00   0.46   4.00   4.00   4.00   3.97   0.00   0.00   0.00   0.00   0.00   0.00      0      0      0       0     744
 1990 330   139   136   21.0      5   1.53   2914   2680    324   4176   7611   2022   16.0  0.043   2017      7  0.000  0.000  0.184  0.000   1.16  16.06   0.27      0   2017     52.7   0.00   0.00   0.46   4.00   4.00   4.00   4.00   0.00   0.00   0.00   0.00   0.00   0.00      0      0      0       0     765
 1990 331   140   137   21.0      5   1.50   2914   2680    390   4234   7677   2022   19.3  0.051   2083      7  0.000  0.000  0.186  0.000   1.15  18.74   0.27      0   2083     51.5   0.00   0.00   0.46   4.00   4.00   4.00   4.00   0.00   0.00   0.00   0.00   0.00   0.00      0      0      0       0     785
 1990 332   141   138   21.0      5   1.46   2914   2680    472   4288   7759   2022   23.3  0.061   2165      7  0.000  0.000  0.186  0.000   1.13  21.79   0.28      0   2165     50.3   0.00   0.00   0.46   4.00   4.00   4.00   4.00   0.00   0.00   0.00   0.00   0.00   0.00      0      0      0       0     807
 1990 333   142   139   21.0      5   1.43   2914   2680    588   4332   7875   2022   29.1  0.075   2281      7  0.000  0.000  0.187  0.000   1.12  25.79   0.29      0   2281     49.1   0.00   0.00   0.46   4.00   4.00   4.00   4.00   0.00   0.00   0.00   0.00   0.00   0.00      0      0      0       0     828
 1990 334   143   140   21.0      5   1.40   2914   2680    720   4323   8007   2022   35.6  0.090   2413      7  0.000  0.000  0.188  0.000   1.09  29.83   0.30      0   2413     47.9   0.00   0.00   0.46   4.00   4.00   4.00   4.00   0.00   0.00   0.00   0.00   0.00   0.00      0      0      0       0     850
 1990 335   144   141   21.0      5   1.36   2914   2680    847   4339   8134   2022   41.9  0.104   2540      7  0.000  0.000  0.192  0.000   1.07  33.35   0.31      0   2540     46.8   0.00   0.00   0.46   4.00   4.00   4.00   4.00   0.00   0.00   0.00   0.00   0.00   0.00      0      0      0       0     871
 1990 336   145   142   21.0      5   1.33   2914   2679    953   4317   8239   2022   47.1  0.116   2646      7  0.000  0.000  0.195  0.000   1.05  36.02   0.32      0   2646     45.6   0.00   0.00   0.46   4.00   4.00   4.00   4.00   0.00   0.00   0.00   0.00   0.00   0.00      0      0      0       0     893
 1990 337   146   143   21.0      5   1.30   2914   2680   1039   4361   8326   2022   51.4  0.125   2732      7  0.000  0.000  0.198  0.000   1.04  38.03   0.33      0   2732     44.5   0.00   0.00   0.46   4.00   4.00   4.00   4.00   0.00   0.00   0.00   0.00   0.00   0.00      0      0      0       0     915
 1990 338   147   144   21.0      5   1.26   2914   2680   1150   4392   8437   2022   56.9  0.136   2844      7  0.000  0.000  0.198  0.000   1.02  40.46   0.34      0   2844     43.4   0.00   0.00   0.46   4.00   4.00   4.00   4.00   0.00   0.00   0.00   0.00   0.00   0.00      0      0      0       0     936
 1990 339   148   145   21.0      5   1.23   2914   2680   1302   4379   8589   2022   64.4  0.152   2995      7  0.000  0.000  0.199  0.000   1.00  43.47   0.35      0   2995     42.3   0.00   0.00   0.46   4.00   4.00   4.00   3.99   0.00   0.00   0.00   0.00   0.00   0.00      0      0      0       0     958
 1990 340   149   146   21.0      5   1.20   2914   2680   1442   4368   8729   2022   71.3  0.165   3135      7  0.000  0.000  0.210  0.000   0.97  46.00   0.36      0   3135     41.3   0.00   0.00   0.46   4.00   4.00   4.00   3.99   0.00   0.00   0.00   0.00   0.00   0.00      0      0      0       0     980
 1990 341   150   147   21.0      5   1.17   2914   2680   1570   4385   8857   2022   77.7  0.177   3263      7  0.000  0.000  0.223  0.000   0.95  48.12   0.37      0   3263     40.2   0.00   0.00   0.46   3.96   3.96   3.93   3.78   0.00   0.00   0.00   0.00   0.00   0.00      0      0      0       0    1002
 1990 342   151   148   21.0      5   1.14   2914   2680   1673   4414   8960   2022   82.7  0.187   3366      7  0.000  0.000  0.239  0.022   0.93  49.70   0.38      0   3366     39.1   0.00   0.00   0.46   4.00   4.00   4.00   3.69   0.00   0.00   0.00   0.00   0.00   0.00      0      0      0       0    1024
 1990 343   152   149   21.0      5   1.11   2914   2680   1756   4394   9043   2022   86.8  0.194   3449      7  0.000  0.000  0.250  0.049   0.92  50.91   0.38      0   3449     38.1   0.00   0.00   0.46   3.89   3.89   3.89   3.59   0.00   0.00   0.00   0.00   0.00   0.00      0      0      0       0    1046
 1990 344   153   150   21.0      5   1.08   2914   2675   1848   4372   9130   2022   91.4  0.202   3541      7  0.000  0.000  0.256  0.303   0.91  52.19   0.39      0   3541     37.0   0.00   0.00   0.46   3.89   3.89   3.89   3.59   0.00   0.00   0.00   0.00   0.00   0.00      0      0      0       0    1068
 1990 345   154   151   21.0      5   1.05   2914   2680   1967   4378   9254   2022   97.3  0.213   3660      7  0.000  0.000  0.264  0.177   0.89  53.74   0.40      0   3660     36.0   0.00   0.00   0.46   3.90   3.90   3.87   3.47   0.00   0.00   0.00   0.00   0.00   0.00      0      0      0       0    1090
 1990 346   155   152   21.0      5   1.02   2914   2680   2042   4370   9329   2022  101.0  0.219   3735      7  0.000  0.000  0.278  0.091   0.88  54.67   0.40      0   3735     35.0   0.00   0.00   0.46   3.88   3.88   3.84   3.40   0.00   0.00   0.00   0.00   0.00   0.00      0      0      0       0    1112
 1990 347   156   153   21.0      5   0.99   2914   2680   2152   4363   9439   2022  106.4  0.228   3845      7  0.000  0.000  0.283  0.031   0.86  55.97   0.41      0   3845     34.0   0.00   0.00   0.46   3.89   3.89   3.83   3.35   0.00   0.00   0.00   0.00   0.00   0.00      0      0      0       0    1134
 1990 348   157   154   21.0      5   0.96   2914   2680   2225   4385   9512   2022  110.0  0.234   3918      7  0.000  0.000  0.296  0.000   0.85  56.79   0.41      0   3918     33.0   0.00   0.00   0.46   4.00   4.00   4.00   3.36   0.00   0.00   0.00   0.00   0.00   0.00      0      0      0       0    1155
 1990 349   158   155   21.0      5   0.93   2914   2680   2335   4401   9622   2022  115.5  0.243   4028      7  0.000  0.000  0.299  0.000   0.83  57.96   0.42      0   4028     32.0   0.00   0.00   0.46   4.00   4.00   4.00   3.38   0.00   0.00   0.00   0.00   0.00   0.00      0      0      0       0    1177
 1990 350   159   156   21.0      5   0.91   2914   2680   2479   4401   9766   2022  122.6  0.254   4172      7  0.000  0.000  0.306  0.000   0.81  59.42   0.43      0   4172     31.1   0.00   0.00   0.46   4.00   4.00   4.00   3.38   0.00   0.00   0.00   0.00   0.00   0.00      0      0      0       0    1199
 1990 351   160   157   21.0      5   0.88   2914   2640   2631   4379   9878   2022  130.1  0.266   4324      7  0.000  0.000  0.320  0.000   0.80  60.85   0.44      0   4324     30.2   0.00   0.00   0.46   4.00   4.00   4.00   3.38   0.00   0.00   0.00   0.00   0.00   0.00      0      0      0       0    1221
 1990 352   161   158   21.0      5   0.85   2914   2672   2770   4373  10048   2022  137.0  0.276   4463      7  0.000  0.000  0.338  0.000   0.77  62.06   0.44      0   4463     29.2   0.00   0.00   0.46   4.00   4.00   4.00   3.37   0.00   0.00   0.00   0.00   0.00   0.00      0      0      0       0    1243
 1990 353   162   159   21.0      5   0.83   2914   2680   2891   4377  10178   2022  143.0  0.284   4584      7  0.000  0.000  0.346  0.000   0.75  63.06   0.45      0   4584     28.3   0.00   0.00   0.46   4.00   4.00   4.00   3.38   0.00   0.00   0.00   0.00   0.00   0.00      0      0      0       0    1265
 1990 354   163   160   21.0      5   0.80   2914   2680   3018   4376  10305   2022  149.3  0.293   4711      7  0.000  0.000  0.367  0.000   0.74  64.06   0.46      0   4711     27.4   0.00   0.00   0.46   4.00   4.00   4.00   3.38   0.00   0.00   0.00   0.00   0.00   0.00      0      0      0       0    1287
 1990 355   164   161   21.0      5   0.77   2914   2680   3170   4358  10457   2022  156.8  0.303   4863      7  0.000  0.000  0.382  0.000   0.72  65.18   0.47      0   4863     26.5   0.00   0.00   0.46   3.99   3.99   3.99   3.36   0.00   0.00   0.00   0.00   0.00   0.00      0      0      0       0    1309
 1990 356   165   162   21.0      5   0.75   2914   2592   3320   4336  10518   2022  164.2  0.316   5013      7  0.000  0.000  0.399  0.000   0.71  66.22   0.48      0   5013     25.6   0.00   0.00   0.46   3.99   3.99   3.99   3.36   0.00   0.00   0.00   0.00   0.00   0.00      0      0      0       0    1331
 1990 357   166   163   21.0      5   0.72   2914   2554   3471   4314  10631   2022  171.7  0.326   5164      7  0.000  0.000  0.416  0.000   0.70  67.22   0.49      0   5164     24.8   0.00   0.00   0.46   3.99   3.99   3.99   3.36   0.00   0.00   0.00   0.00   0.00   0.00      0      0      0       0    1352
 1990 358   167   164   21.0      5   0.70   2914   2507   3591   4293  10705   2022  177.6  0.335   5284      7  0.000  0.000  0.423  0.000   0.69  67.96   0.49      0   5284     23.9   0.00   0.00   0.46   3.99   3.99   3.99   3.36   0.00   0.00   0.00   0.00   0.00   0.00      0      0      0       0    1374
 1990 359   168   165   21.0      5   0.67   2914   2530   3702   4283  10840   2022  183.1  0.342   5395      7  0.000  0.000  0.432  0.000   0.67  68.62   0.50      0   5395     23.1   0.00   0.00   0.46   4.00   4.00   3.99   3.32   0.00   0.00   0.00   0.00   0.00   0.00      0      0      0       0    1395
 1990 360   169   166   21.0      5   0.65   2914   2537   3854   4265  10997   2022  190.6  0.350   5547      7  0.000  0.000  0.435  0.000   0.65  69.48   0.50      0   5547     22.3   0.00   0.00   0.46   3.97   3.97   3.95   3.29   0.00   0.00   0.00   0.00   0.00   0.00      0      0      0       0    1417
 1990 361   170   167   21.0      5   0.63   2914   2537   4006   4244  11149   2022  198.1  0.359   5699      7  0.000  0.000  0.460  0.000   0.63  70.29   0.51      0   5699     21.5   0.00   0.00   0.46   3.93   3.93   3.91   3.25   0.00   0.00   0.00   0.00   0.00   0.00      0      0      0       0    1438
 1990 362   171   168   21.0      5   0.60   2914   2565   4091   4237  11263   2022  202.4  0.363   5784      7  0.000  0.000  0.485  0.000   0.62  70.73   0.51      0   5784     20.7   0.00   0.00   0.46   3.97   3.97   3.94   3.23   0.00   0.00   0.00   0.00   0.00   0.00      0      0      0       0    1459
 1990 363   172   169   21.0      5   0.58   2914   2591   4167   4228  11365   2022  206.1  0.367   5860      7  0.000  0.000  0.492  0.000   0.61  71.11   0.52      0   5860     19.9   0.00   0.00   0.46   4.00   4.00   3.97   3.22   0.00   0.00   0.00   0.00   0.00   0.00      0      0      0       0    1481
 1990 364   173   170   21.0      5   0.56   2914   2598   4279   4211  11484   2022  211.7  0.373   5972      7  0.000  0.000  0.502  0.000   0.60  71.65   0.52      0   5972     19.2   0.00   0.00   0.46   3.99   3.99   3.96   3.20   0.00   0.00   0.00   0.00   0.00   0.00      0      0      0       0    1502
 1990 365   174   171   21.0      5   0.54   2914   2573   4426   4190  11606   2022  218.9  0.381   6119      7  0.000  0.000  0.520  0.000   0.59  72.33   0.53      0   6119     18.4   0.00   0.00   0.46   3.99   3.99   3.96   3.20   0.00   0.00   0.00   0.00   0.00   0.00      0      0      0       0    1523
 1991 001   175   172   21.0      5   0.52   2914   2508   4578   4169  11693   2022  226.4  0.391   6271      7  0.000  0.000  0.540  0.000   0.58  73.00   0.54      0   6271     17.7   0.00   0.00   0.46   3.99   3.99   3.96   3.20   0.00   0.00   0.00   0.00   0.00   0.00      0      0      0       0    1544
 1991 002   176   173   21.0      5   0.50   2914   2437   4729   4148  11773   2022  233.9  0.402   6422      7  0.000  0.000  0.556  0.000   0.57  73.64   0.55      0   6422     17.0   0.00   0.00   0.46   3.99   3.99   3.96   3.20   0.00   0.00   0.00   0.00   0.00   0.00      0      0      0       0    1565
 1991 003   177   174   21.0      5   0.48   2914   2371   4881   4127  11858   2022  241.4  0.412   6574      7  0.000  0.000  0.565  0.000   0.57  74.25   0.55      0   6574     16.3   0.00   0.00   0.46   3.99   3.99   3.96   3.20   0.00   0.00   0.00   0.00   0.00   0.00      0      0      0       0    1585
 1991 004   178   175   21.0      5   0.46   2914   2332   5014   4107  11952   2022  248.0  0.419   6707      7  0.000  0.000  0.573  0.000   0.56  74.76   0.56      0   6707     15.7   0.00   0.00   0.46   3.99   3.99   3.96   3.20   0.00   0.00   0.00   0.00   0.00   0.00      0      0      0       0    1606
 1991 005   179   176   21.0      5   0.44   2914   2289   5147   4086  12043   2022  254.6  0.427   6840      7  0.000  0.000  0.578  0.000   0.55  75.25   0.57      0   6840     15.0   0.00   0.00   0.46   3.99   3.99   3.96   3.20   0.00   0.00   0.00   0.00   0.00   0.00      0      0      0       0    1627
 1991 006   180   177   21.0      5   0.42   2914   2233   5288   4066  12127   2022  261.5  0.436   6981      7  0.000  0.000  0.590  0.000   0.54  75.75   0.58      0   6981     14.4   0.00   0.00   0.46   3.99   3.99   3.96   3.20   0.00   0.00   0.00   0.00   0.00   0.00      0      0      0       0    1647
 1991 007   181   178   21.0      5   0.40   2914   2156   5439   4045  12202   2022  269.0  0.446   7132      7  0.000  0.000  0.602  0.000   0.54  76.26   0.58      0   7132     13.8   0.00   0.00   0.46   3.99   3.99   3.96   3.20   0.00   0.00   0.00   0.00   0.00   0.00      0      0      0       0    1667
 1991 008   182   179   21.0      5   0.40   2914   2156   5439   4045  12202   2022  269.0  0.446   7132      7  0.000  0.000  0.602  0.000   0.54  76.26   0.58      0   7132     13.8   0.00   0.00   0.46   3.99   3.99   3.96   3.20   0.00   0.00   0.00   0.00   0.00   0.00      0      0      0       0    1667
 1991 009   183   180   21.0      5   0.40   2914   2156   5439   4045  12202   2022  269.0  0.446   7132      7  0.000  0.000  0.602  0.000   0.54  76.26   0.58      0   7132     13.8   0.00   0.00   0.46   3.99   3.99   3.96   3.20   0.00   0.00   0.00   0.00   0.00   0.00      0      0      0       0    1667
 1991 010   184   181   21.0      5   0.40   2914   2156   5439   4045  12202   2022  269.0  0.446   7132      7  0.000  0.000  0.602  0.000   0.54  76.26   0.58      0   7132     13.8   0.00   0.00   0.46   3.99   3.99   3.96   3.20   0.00   0.00   0.00   0.00   0.00   0.00      0      0      0       0    1667

*DSSAT Cropping System Model Ver. 4.0.2.000               Aug 03, 2016; 12:58:51

*RUN   2        : UYMZ                    
 MODEL          : MZCER040 - Maize           
 EXPERIMENT     : UYMZ0114 MZ    late to create DSS                             
 TREATMENT  1   : UYMZ                    

@YEAR DOY   DAS   DAP   L#SD   GSTD   LAID   LWAD   SWAD   GWAD   RWAD   CWAD   G#AD   GWGD   HIAD   PWAD   P#AD   WSPD   WSGD   NSTD   EWSD   LN%D   SH%D   HIPD   PWDD   PWTD     SLAD   CHTD   CWID   RDPD   RL1D   RL2D   RL3D   RL4D   RL5D   RL6D   RL7D   RL8D   RL9D   RL10   CDAD   LDAD   SDAD   SNW0C   SNW1C
 1991 194     3     0    0.0      0   0.00      0      0      0      0      0      0    0.0  0.000      0      0  0.000  0.000  0.000  0.000   0.00   0.00   0.00      0      0      0.0   0.00   0.00   0.03   0.00   0.00   0.00   0.00   0.00   0.00   0.00   0.00   0.00   0.00      0      0      0       0       0
 1991 195     4     1    0.0      0   0.00      0      0      0      0      0      0    0.0  0.000      0      0  0.000  0.000  0.000  0.000   0.00   0.00   0.00      0      0      0.0   0.00   0.00   0.03   0.00   0.00   0.00   0.00   0.00   0.00   0.00   0.00   0.00   0.00      0      0      0       0       0
 1991 196     5     2    0.0      0   0.00      0      0      0      0      0      0    0.0  0.000      0      0  0.000  0.000  0.000  0.000   0.00   0.00   0.00      0      0      0.0   0.00   0.00   0.03   0.00   0.00   0.00   0.00   0.00   0.00   0.00   0.00   0.00   0.00      0      0      0       0       0
 1991 197     6     3    0.0      0   0.00      0      0      0      0      0      0    0.0  0.000      0      0  0.000  0.000  0.000  0.000   0.00   0.00   0.00      0      0      0.0   0.00   0.00   0.03   0.00   0.00   0.00   0.00   0.00   0.00   0.00   0.00   0.00   0.00      0      0      0       0       0
 1991 198     7     4    0.0      0   0.00      0      0      0      0      0      0    0.0  0.000      0      0  0.000  0.000  0.000  0.000   0.00   0.00   0.00      0      0      0.0   0.00   0.00   0.04   0.00   0.00   0.00   0.00   0.00   0.00   0.00   0.00   0.00   0.00      0      0      0       0       0
 1991 199     8     5    0.0      0   0.00      0      0      0      0      0      0    0.0  0.000      0      0  0.000  0.000  0.000  0.000   0.00   0.00   0.00      0      0      0.0   0.00   0.00   0.05   0.00   0.00   0.00   0.00   0.00   0.00   0.00   0.00   0.00   0.00      0      0      0       0       0
 1991 200     9     6    0.0      0   0.00      0      0      0      0      0      0    0.0  0.000      0      0  0.000  0.000  0.000  0.000   0.00   0.00   0.00      0      0      0.0   0.00   0.00   0.05   0.00   0.00   0.00   0.00   0.00   0.00   0.00   0.00   0.00   0.00      0      0      0       0       0
 1991 201    10     7    0.0      0   0.00      0      0      0      0      0      0    0.0  0.000      0      0  0.000  0.000  0.000  0.000   0.00   0.00   0.00      0      0      0.0   0.00   0.00   0.07   0.00   0.00   0.00   0.00   0.00   0.00   0.00   0.00   0.00   0.00      0      0      0       0       0
 1991 202    11     8    0.0      0   0.00      0      0      0      0      0      0    0.0  0.000      0      0  0.000  0.000  0.000  0.000   0.00   0.00   0.00      0      0      0.0   0.00   0.00   0.07   0.00   0.00   0.00   0.00   0.00   0.00   0.00   0.00   0.00   0.00      0      0      0       0       0
 1991 203    12     9    0.0      0   0.00      0      0      0      0      0      0    0.0  0.000      0      0  0.000  0.000  0.000  0.000   0.00   0.00   0.00      0      0      0.0   0.00   0.00   0.07   0.00   0.00   0.00   0.00   0.00   0.00   0.00   0.00   0.00   0.00      0      0      0       0       0
 1991 204    13    10    0.0      0   0.00      0      0      0      0      0      0    0.0  0.000      0      0  0.000  0.000  0.000  0.000   0.00   0.00   0.00      0      0      0.0   0.00   0.00   0.07   0.00   0.00   0.00   0.00   0.00   0.00   0.00   0.00   0.00   0.00      0      0      0       0       0
 1991 205    14    11    0.0      0   0.00      0      0      0      0      0      0    0.0  0.000      0      0  0.000  0.000  0.000  0.000   0.00   0.00   0.00      0      0      0.0   0.00   0.00   0.08   0.00   0.00   0.00   0.00   0.00   0.00   0.00   0.00   0.00   0.00      0      0      0       0       0
 1991 206    15    12    0.0      0   0.00      0      0      0      0      0      0    0.0  0.000      0      0  0.000  0.000  0.000  0.000   0.00   0.00   0.00      0      0      0.0   0.00   0.00   0.08   0.00   0.00   0.00   0.00   0.00   0.00   0.00   0.00   0.00   0.00      0      0      0       0       0
 1991 207    16    13    0.0      0   0.00      0      0      0      0      0      0    0.0  0.000      0      0  0.000  0.000  0.000  0.000   0.00   0.00   0.00      0      0      0.0   0.00   0.00   0.09   0.00   0.00   0.00   0.00   0.00   0.00   0.00   0.00   0.00   0.00      0      0      0       0       0
 1991 208    17    14    0.0      0   0.00      0      0      0      0      0      0    0.0  0.000      0      0  0.000  0.000  0.000  0.000   0.00   0.00   0.00      0      0      0.0   0.00   0.00   0.11   0.00   0.00   0.00   0.00   0.00   0.00   0.00   0.00   0.00   0.00      0      0      0       0       0
 1991 209    18    15    1.0      1   0.00     14     14      0     14     28      0    0.0  0.000      0      0  0.000  0.000  0.012  0.000   4.40   0.00   0.00      0      0     23.9   0.00   0.00   0.12   0.28   0.09   0.00   0.00   0.00   0.00   0.00   0.00   0.00   0.00      0      0      0       0       0
 1991 210    19    16    2.0      1   0.01     14     14      0     14     28      0    0.0  0.000      0      0  0.000  0.000  0.013  0.000   4.51   0.00   0.00      0      0     46.3   0.00   0.00   0.14   0.28   0.09   0.00   0.00   0.00   0.00   0.00   0.00   0.00   0.00      0      0      0       0       0
 1991 211    20    17    2.0      1   0.01     14     14      0     14     28      0    0.0  0.000      0      0  0.000  0.000  0.000  0.000   4.51   0.00   0.00      0      0     58.0   0.00   0.00   0.14   0.27   0.10   0.00   0.00   0.00   0.00   0.00   0.00   0.00   0.00      0      0      0       0       0
 1991 212    21    18    2.0      1   0.01     14     14      0     15     28      0    0.0  0.000      0      0  0.000  0.000  0.000  0.000   4.49   0.00   0.00      0      0     63.1   0.00   0.00   0.15   0.27   0.10   0.00   0.00   0.00   0.00   0.00   0.00   0.00   0.00      0      0      0       0       0
 1991 213    22    19    2.0      1   0.01     14     14      0     15     28      0    0.0  0.000      0      0  0.000  0.000  0.000  0.000   4.49   0.00   0.00      0      0     44.0   0.00   0.00   0.15   0.27   0.10   0.00   0.00   0.00   0.00   0.00   0.00   0.00   0.00      0      0      0       0       0
 1991 214    23    20    2.0      1   0.00     14     14      0     15     28      0    0.0  0.000      0      0  0.000  0.000  0.000  0.000   4.49   0.00   0.00      0      0     17.2   0.00   0.00   0.15   0.27   0.10   0.00   0.00   0.00   0.00   0.00   0.00   0.00   0.00      0      0      0       0       0
 1991 215    24    21    2.0      1   0.00     14     14      0     15     28      0    0.0  0.000      0      0  0.000  0.000  0.000  0.000   4.49   0.00   0.00      0      0      9.3   0.00   0.00   0.15   0.26   0.10   0.00   0.00   0.00   0.00   0.00   0.00   0.00   0.00      0      0      0       0       0
 1991 216    25    22    2.0      1   0.00     14     14      0     15     28      0    0.0  0.000      0      0  0.000  0.000  0.000  0.000   4.49   0.00   0.00      0      0      9.3   0.00   0.00   0.15   0.25   0.10   0.00   0.00   0.00   0.00   0.00   0.00   0.00   0.00      0      0      0       0       0
 1991 217    26    23    2.0      1   0.00     14     14      0     15     28      0    0.0  0.000      0      0  0.000  0.000  0.000  0.000   4.49   0.00   0.00      0      0     13.1   0.00   0.00   0.15   0.25   0.10   0.00   0.00   0.00   0.00   0.00   0.00   0.00   0.00      0      0      0       0       0
 1991 218    27    24    2.0      1   0.00     14     14      0     15     28      0    0.0  0.000      0      0  0.000  0.000  0.000  0.000   4.49   0.00   0.00      0      0     10.9   0.00   0.00   0.15   0.24   0.10   0.00   0.00   0.00   0.00   0.00   0.00   0.00   0.00      0      0      0       0       0
 1991 219    28    25    2.0      1   0.00     14     14      0     15     28      0    0.0  0.000      0      0  0.000  0.000  0.000  0.000   4.49   0.00   0.00      0      0     11.9   0.00   0.00   0.15   0.24   0.10   0.00   0.00   0.00   0.00   0.00   0.00   0.00   0.00      0      0      0       0       0
 1991 220    29    26    3.0      1   0.00     14     14      0     15     28      0    0.0  0.000      0      0  0.000  0.000  0.000  0.000   4.49   0.00   0.00      0      0     20.7   0.00   0.00   0.16   0.24   0.10   0.00   0.00   0.00   0.00   0.00   0.00   0.00   0.00      0      0      0       0       0
 1991 221    30    27    3.0      1   0.00     14     14      0     15     28      0    0.0  0.000      0      0  0.000  0.000  0.000  0.000   4.49   0.00   0.00      0      0     31.2   0.00   0.00   0.16   0.24   0.10   0.00   0.00   0.00   0.00   0.00   0.00   0.00   0.00      0      0      0       0       0
 1991 222    31    28    3.0      1   0.00     14     14      0     15     28      0    0.0  0.000      0      0  0.000  0.000  0.000  0.000   4.49   0.00   0.00      0      0     35.3   0.00   0.00   0.16   0.23   0.10   0.00   0.00   0.00   0.00   0.00   0.00   0.00   0.00      0      0      0       0       0
 1991 223    32    29    3.0      1   0.01     14     14      0     15     28      0    0.0  0.000      0      0  0.000  0.000  0.000  0.000   4.49   0.00   0.00      0      0     38.4   0.00   0.00   0.16   0.23   0.10   0.00   0.00   0.00   0.00   0.00   0.00   0.00   0.00      0      0      0       0       0
 1991 224    33    30    3.0      1   0.00     14     14      0     15     28      0    0.0  0.000      0      0  0.000  0.000  0.000  0.000   4.49   0.00   0.00      0      0     33.9   0.00   0.00   0.17   0.23   0.10   0.00   0.00   0.00   0.00   0.00   0.00   0.00   0.00      0      0      0       0       0
 1991 225    34    31    3.0      1   0.01     14     14      0     16     28      0    0.0  0.000      0      0  0.000  0.000  0.000  0.000   4.49   0.00   0.00      0      0     45.7   0.00   0.00   0.17   0.23   0.11   0.00   0.00   0.00   0.00   0.00   0.00   0.00   0.00      0      0      0       0       0
 1991 226    35    32    3.0      1   0.01     14     14      0     16     28      0    0.0  0.000      0      0  0.000  0.000  0.000  0.000   4.49   0.00   0.00      0      0     72.4   0.00   0.00   0.18   0.23   0.12   0.01   0.00   0.00   0.00   0.00   0.00   0.00   0.00      0      0      0       0       0
 1991 227    36    33    4.0      1   0.02     14     14      0     17     28      0    0.0  0.000      0      0  0.000  0.000  0.000  0.000   4.49   0.00   0.00      0      0    176.5   0.00   0.00   0.19   0.23   0.13   0.01   0.00   0.00   0.00   0.00   0.00   0.00   0.00      0      0      0       0       0
 1991 228    37    34    4.0      1   0.04     15     14      0     19     29      0    0.0  0.000      0      0  0.000  0.000  0.000  0.000   4.14   0.00   0.00      0      0    278.0   0.00   0.00   0.20   0.23   0.14   0.03   0.00   0.00   0.00   0.00   0.00   0.00   0.00      0      0      0       0       0
 1991 229    38    35    4.0      1   0.06     21     14      0     22     35      0    0.0  0.000      0      0  0.000  0.000  0.000  0.000   3.55   0.00   0.00      0      0    273.7   0.00   0.00   0.21   0.23   0.17   0.05   0.00   0.00   0.00   0.00   0.00   0.00   0.00      0      0      0       0       0
 1991 230    39    36    5.0      1   0.08     29     14      0     23     43      0    0.0  0.000      0      0  0.000  0.000  0.000  0.000   3.56   0.00   0.00      0      0    267.0   0.00   0.00   0.22   0.23   0.17   0.06   0.00   0.00   0.00   0.00   0.00   0.00   0.00      0      0      0       0       0
 1991 231    40    37    5.0      1   0.10     37     14      0     27     51      0    0.0  0.000      0      0  0.000  0.000  0.000  0.000   3.55   0.00   0.00      0      0    259.6   0.00   0.00   0.23   0.23   0.20   0.09   0.00   0.00   0.00   0.00   0.00   0.00   0.00      0      0      0       0       1
 1991 232    41    38    5.0      1   0.12     47     14      0     30     61      0    0.0  0.000      0      0  0.000  0.000  0.000  0.000   3.55   0.00   0.00      0      0    252.0   0.00   0.00   0.24   0.23   0.21   0.12   0.00   0.00   0.00   0.00   0.00   0.00   0.00      0      0      0       0       1
 1991 233    42    39    6.0      1   0.14     58     14      0     39     72      0    0.0  0.000      0      0  0.000  0.000  0.000  0.000   3.54   0.00   0.00      0      0    244.5   0.00   0.00   0.25   0.24   0.26   0.19   0.00   0.00   0.00   0.00   0.00   0.00   0.00      0      0      0       0       1
 1991 234    43    40    6.0      1   0.17     73     14      0     48     87      0    0.0  0.000      0      0  0.000  0.000  0.000  0.000   3.46   0.00   0.00      0      0    236.4   0.00   0.00   0.27   0.26   0.31   0.28   0.00   0.00   0.00   0.00   0.00   0.00   0.00      0      0      0       0       1
 1991 235    44    41    6.0      1   0.20     86     14      0     65    100      0    0.0  0.000      0      0  0.000  0.000  0.000  0.000   3.59   0.00   0.00      0      0    230.2   0.00   0.00   0.28   0.28   0.39   0.43   0.00   0.00   0.00   0.00   0.00   0.00   0.00      0      0      0       0       1
 1991 236    45    42    6.0      1   0.22     97     14      0     85    111      0    0.0  0.000      0      0  0.000  0.000  0.000  0.000   3.71   0.00   0.00      0      0    225.7   0.00   0.00   0.28   0.32   0.49   0.62   0.00   0.00   0.00   0.00   0.00   0.00   0.00      0      0      0       0       2
 1991 237    46    43    7.0      1   0.25    113     14      0    102    127      0    0.0  0.000      0      0  0.000  0.000  0.000  0.000   3.57   0.00   0.00      0      0    220.0   0.00   0.00   0.29   0.34   0.56   0.78   0.00   0.00   0.00   0.00   0.00   0.00   0.00      0      0      0       0       2
 1991 238    47    44    7.0      1   0.27    124     14      0    105    138      0    0.0  0.000      0      0  0.000  0.000  0.000  0.000   3.77   0.00   0.00      0      0    216.7   0.00   0.00   0.30   0.35   0.57   0.82   0.00   0.00   0.00   0.00   0.00   0.00   0.00      0      0      0       0       3
 1991 239    48    45    7.0      1   0.28    133     14      0    109    147      0    0.0  0.000      0      0  0.000  0.000  0.000  0.000   3.82   0.00   0.00      0      0    214.1   0.00   0.00   0.30   0.36   0.59   0.86   0.00   0.00   0.00   0.00   0.00   0.00   0.00      0      0      0       0       3
 1991 240    49    46    7.0      1   0.31    150     14      0    124    164      0    0.0  0.000      0      0  0.000  0.000  0.000  0.000   3.63   0.00   0.00      0      0    209.7   0.00   0.00   0.31   0.39   0.65   1.00   0.00   0.00   0.00   0.00   0.00   0.00   0.00      0      0      0       0       4
 1991 241    50    47    8.0      1   0.35    172     14      0    139    186      0    0.0  0.000      0      0  0.000  0.000  0.000  0.000   3.54   0.00   0.00      0      0    204.6   0.00   0.00   0.32   0.41   0.71   1.13   0.01   0.00   0.00   0.00   0.00   0.00   0.00      0      0      0       0       4
 1991 242    51    48    8.0      1   0.40    200     14      0    143    214      0    0.0  0.000      0      0  0.000  0.000  0.000  0.000   3.47   0.00   0.00      0      0    199.1   0.00   0.00   0.33   0.42   0.73   1.17   0.01   0.00   0.00   0.00   0.00   0.00   0.00      0      0      0       0       5
 1991 243    52    49    8.0      1   0.42    215     14      0    149    229      0    0.0  0.000      0      0  0.000  0.000  0.000  0.000   3.73   0.00   0.00      0      0    196.2   0.00   0.00   0.34   0.43   0.75   1.22   0.02   0.00   0.00   0.00   0.00   0.00   0.00      0      0      0       0       6
 1991 244    53    50    8.0      1   0.44    226     14      0    165    240      0    0.0  0.000      0      0  0.000  0.000  0.000  0.000   3.79   0.00   0.00      0      0    194.2   0.00   0.00   0.34   0.43   0.82   1.37   0.04   0.00   0.00   0.00   0.00   0.00   0.00      0      0      0       0       6
 1991 245    54    51    8.0      1   0.46    243     14      0    172    257      0    0.0  0.000      0      0  0.000  0.000  0.000  0.000   3.69   0.00   0.00      0      0    191.2   0.00   0.00   0.35   0.43   0.84   1.43   0.05   0.00   0.00   0.00   0.00   0.00   0.00      0      0      0       0       7
 1991 246    55    52    9.0      1   0.51    274     14      0    191    288      0    0.0  0.000      0      0  0.000  0.000  0.000  0.000   3.51   0.00   0.00      0      0    186.5   0.00   0.00   0.36   0.44   0.92   1.59   0.08   0.00   0.00   0.00   0.00   0.00   0.00      0      0      0       0       8
 1991 247    56    53    9.0      1   0.57    313     14      0    237    327      0    0.0  0.000      0      0  0.000  0.000  0.000  0.000   3.43   0.00   0.00      0      0    181.4   0.00   0.00   0.37   0.44   1.08   1.98   0.17   0.00   0.00   0.00   0.00   0.00   0.00      0      0      0       0       9
 1991 248    57    54    9.0      2   0.65    339     14      0    296    353      0    0.0  0.000      0      0  0.000  0.000  0.000  0.000   3.59   0.00   0.00      0      0    190.5   0.00   0.00   0.38   0.46   1.26   2.46   0.34   0.00   0.00   0.00   0.00   0.00   0.00      0      0      0       0      10
 1991 249    58    55   10.0      2   0.70    374     14      0    301    388      0    0.0  0.000      0      0  0.000  0.000  0.003  0.000   3.55   0.00   0.00      0      0    186.7   0.00   0.00   0.39   0.46   1.27   2.50   0.36   0.00   0.00   0.00   0.00   0.00   0.00      0      0      0       0      12
 1991 250    59    56   10.0      2   0.74    404     14      0    309    418      0    0.0  0.000      0      0  0.000  0.000  0.000  0.000   3.54   0.00   0.00      0      0    183.7   0.00   0.00   0.40   0.46   1.29   2.56   0.39   0.00   0.00   0.00   0.00   0.00   0.00      0      0      0       0      13
 1991 251    60    57   10.0      2   0.78    430     14      0    320    444      0    0.0  0.000      0      0  0.000  0.000  0.000  0.000   3.81   0.00   0.00      0      0    181.2   0.00   0.00   0.41   0.46   1.32   2.64   0.44   0.00   0.00   0.00   0.00   0.00   0.00      0      0      0       0      15
 1991 252    61    58   10.0      3   0.82    461     14      0    382    475      0    0.0  0.000      0      0  0.000  0.000  0.022  0.000   3.68   0.00   0.00      0      0    177.2   0.00   0.00   0.41   0.49   1.40   3.05   0.76   0.00   0.00   0.00   0.00   0.00   0.00      0      0      0       0      16
 1991 253    62    59   10.0      3   0.88    503     14      0    449    518      0    0.0  0.000      0      0  0.000  0.000  0.022  0.000   3.58   0.00   0.00      0      0    174.0   0.00   0.00   0.42   0.52   1.45   3.46   1.20   0.00   0.00   0.00   0.00   0.00   0.00      0      0      0       0      18
 1991 254    63    60   11.0      3   0.95    560     15      0    529    574      0    0.0  0.000      0      0  0.000  0.000  0.022  0.000   3.54   0.00   0.00      0      0    170.4   0.00   0.00   0.43   0.56   1.49   3.85   1.80   0.00   0.00   0.00   0.00   0.00   0.00      0      0      0       0      20
 1991 255    64    61   11.0      3   1.05    631     16      0    604    647      0    0.0  0.000      0      0  0.000  0.000  0.022  0.000   3.44   0.00   0.00      0      0    166.4   0.00   0.00   0.44   0.62   1.54   4.00   2.57   0.00   0.00   0.00   0.00   0.00   0.00      0      0      0       0      23
 1991 256    65    62   11.0      3   1.17    724     19      0    647    743      0    0.0  0.000      0      0  0.000  0.000  0.022  0.000   3.23   0.00   0.00      0      0    162.1   0.00   0.00   0.46   0.65   1.57   4.00   3.08   0.00   0.00   0.00   0.00   0.00   0.00      0      0      0       0      26
 1991 257    66    63   11.0      3   1.22    764     21      0    662    786      0    0.0  0.000      0      0  0.000  0.000  0.022  0.000   3.26   0.00   0.00      0      0    160.1   0.00   0.00   0.46   0.67   1.58   3.99   3.27   0.00   0.00   0.00   0.00   0.00   0.00      0      0      0       0      29
 1991 258    67    64   12.0      3   1.24    781     22      0    671    804      0    0.0  0.000      0      0  0.000  0.000  0.022  0.000   3.34   0.00   0.00      0      0    159.0   0.00   0.00   0.46   0.68   1.58   3.99   3.38   0.00   0.00   0.00   0.00   0.00   0.00      0      0      0       0      33
 1991 259    68    65   12.0      3   1.34    858     27      0    704    885      0    0.0  0.000      0      0  0.000  0.000  0.022  0.000   3.14   0.00   0.00      0      0    156.1   0.00   0.00   0.46   0.72   1.62   4.00   3.76   0.00   0.00   0.00   0.00   0.00   0.00      0      0      0       0      36
 1991 260    69    66   12.0      3   1.43    931     34      0    705    964      0    0.0  0.000      0      0  0.000  0.000  0.022  0.000   2.99   0.00   0.00      0      0    153.5   0.00   0.00   0.46   0.72   1.62   3.98   3.79   0.00   0.00   0.00   0.00   0.00   0.00      0      0      0       0      40
 1991 261    70    67   12.0      3   1.51    997     41      0    802   1038      0    0.0  0.000      0      0  0.000  0.000  0.024  0.000   2.79   0.00   0.00      0      0    151.2   0.00   0.00   0.46   0.85   1.68   3.86   4.00   0.00   0.00   0.00   0.00   0.00   0.00      0      0      0       0      43
 1991 262    71    68   12.0      3   1.55   1036     45      0    920   1081      0    0.0  0.000      0      0  0.000  0.000  0.034  0.000   2.71   0.00   0.00      0      0    149.6   0.00   0.00   0.46   1.05   1.85   3.90   4.00   0.00   0.00   0.00   0.00   0.00   0.00      0      0      0       0      47
[...]
 1992 319   128   125   21.0      3   2.47   3591   2255      0   4908   5846      0    0.0  0.000      0      0  0.000  0.000  0.206  0.000   1.10   0.00   0.00      0      0     68.7   0.00   0.00   0.45   4.00   4.00   4.00   4.00   0.00   0.00   0.00   0.00   0.00   0.00      0      0      0       0     669
 1992 320   129   126   21.0      3   2.44   3627   2363      0   4977   5990      0    0.0  0.000      0      0  0.000  0.000  0.221  0.000   1.08   0.00   0.00      0      0     67.2   0.00   0.00   0.45   4.00   4.00   4.00   4.00   0.00   0.00   0.00   0.00   0.00   0.00      0      0      0       0     693
 1992 321   130   127   21.0      3   2.39   3648   2425      0   5110   6072      0    0.0  0.000      0      0  0.000  0.000  0.246  0.000   1.07   0.00   0.00      0      0     65.5   0.00   0.00   0.45   4.00   4.00   4.00   4.00   0.00   0.00   0.00   0.00   0.00   0.00      0      0      0       0     718
 1992 322   131   128   21.0      3   2.34   3664   2474      0   5241   6138      0    0.0  0.000      0      0  0.000  0.000  0.269  0.000   1.06   0.00   0.00      0      0     63.8   0.00   0.00   0.45   4.00   4.00   4.00   4.00   0.00   0.00   0.00   0.00   0.00   0.00      0      0      0       0     744
 1992 323   132   129   21.0      3   2.29   3682   2530      0   5367   6212      0    0.0  0.000      0      0  0.000  0.000  0.276  0.000   1.05   0.00   0.00      0      0     62.2   0.00   0.00   0.45   4.00   4.00   4.00   4.00   0.00   0.00   0.00   0.00   0.00   0.00      0      0      0       0     770
 1992 324   133   130   21.0      3   2.25   3711   2615      0   5476   6326      0    0.0  0.000      0      0  0.000  0.000  0.274  0.000   1.04   0.00   0.00      0      0     60.7   0.00   0.00   0.45   4.00   4.00   4.00   4.00   0.00   0.00   0.00   0.00   0.00   0.00      0      0      0       0     797
 1992 325   134   131   21.0      3   2.22   3746   2717      0   5525   6463      0    0.0  0.000      0      0  0.000  0.000  0.273  0.000   1.02   0.00   0.00      0      0     59.3   0.00   0.00   0.45   4.00   4.00   4.00   4.00   0.00   0.00   0.00   0.00   0.00   0.00      0      0      0       0     824
 1992 326   135   132   21.0      4   2.16   3708   2288      0   5510   6512      0    0.0  0.000    516      0  0.000  0.000  0.285  0.000   1.20   0.00   0.08      0    516     58.2   0.00   0.00   0.45   4.00   3.98   3.98   3.98   0.00   0.00   0.00   0.00   0.00   0.00      0      0      0       0     852
 1992 327   136   133   21.0      4   2.11   3669   2309      0   5629   6547      0    0.0  0.000    569      0  0.000  0.000  0.193  0.000   1.24   0.00   0.09      0    569     57.4   0.00   0.00   0.45   4.00   4.00   4.00   3.98   0.00   0.00   0.00   0.00   0.00   0.00      0      0      0       0     879
 1992 328   137   134   21.0      4   2.07   3629   2331      0   5727   6584      0    0.0  0.000    624      0  0.000  0.000  0.151  0.000   1.26   0.00   0.09      0    624     57.0   0.00   0.00   0.45   4.00   4.00   4.00   3.99   0.00   0.00   0.00   0.00   0.00   0.00      0      0      0       0     907
 1992 329   138   135   21.0      4   2.03   3587   2374      0   5805   6690      0    0.0  0.000    729      0  0.000  0.000  0.140  0.000   1.27   0.00   0.11      0    729     56.6   0.00   0.00   0.45   4.00   4.00   4.00   4.00   0.00   0.00   0.00   0.00   0.00   0.00      0      0      0       0     936
 1992 330   139   136   21.0      4   2.00   3542   2422      0   5857   6813      0    0.0  0.000    849      0  0.000  0.000  0.133  0.000   1.27   0.00   0.12      0    849     56.4   0.00   0.00   0.45   4.00   4.00   4.00   4.00   0.00   0.00   0.00   0.00   0.00   0.00      0      0      0       0     965
 1992 331   140   137   21.0      4   1.97   3496   2473      0   5881   6945      0    0.0  0.000    977      0  0.000  0.000  0.128  0.000   1.27   0.00   0.14      0    977     56.2   0.00   0.00   0.45   4.00   4.00   4.00   4.00   0.00   0.00   0.00   0.00   0.00   0.00      0      0      0       0     994
 1992 332   141   138   21.0      4   1.93   3447   2524      0   5988   7076      0    0.0  0.000   1105      0  0.000  0.000  0.123  0.000   1.27   0.00   0.16      0   1105     56.1   0.00   0.00   0.45   4.00   4.00   4.00   4.00   0.00   0.00   0.00   0.00   0.00   0.00      0      0      0       0    1024
 1992 333   142   139   21.0      4   1.91   3396   2579      0   6020   7216      0    0.0  0.000   1242      0  0.000  0.000  0.119  0.000   1.27   0.00   0.17      0   1242     56.1   0.00   0.00   0.45   4.00   4.00   4.00   4.00   0.00   0.00   0.00   0.00   0.00   0.00      0      0      0       0    1054
 1992 334   143   140   21.0      4   1.88   3342   2646      0   6020   7399      0    0.0  0.000   1411      0  0.000  0.000  0.113  0.000   1.27   0.00   0.19      0   1411     56.2   0.00   0.00   0.45   4.00   4.00   4.00   4.00   0.00   0.00   0.00   0.00   0.00   0.00      0      0      0       0    1084
 1992 335   144   141   21.0      4   1.85   3285   2716      0   6033   7585      0    0.0  0.000   1584      0  0.000  0.000  0.107  0.000   1.27   0.00   0.21      0   1584     56.4   0.00   0.00   0.45   4.00   4.00   4.00   4.00   0.00   0.00   0.00   0.00   0.00   0.00      0      0      0       0    1114
 1992 336   145   142   21.0      4   1.83   3226   2766      0   6137   7701      0    0.0  0.000   1709      0  0.000  0.000  0.104  0.000   1.28   0.00   0.22      0   1709     56.7   0.00   0.00   0.45   4.00   4.00   4.00   4.00   0.00   0.00   0.00   0.00   0.00   0.00      0      0      0       0    1144
 1992 337   146   143   21.0      4   1.81   3165   2806      0   6261   7782      0    0.0  0.000   1811      0  0.000  0.000  0.101  0.000   1.28   0.00   0.23      0   1811     57.1   0.00   0.00   0.45   4.00   4.00   4.00   4.00   0.00   0.00   0.00   0.00   0.00   0.00      0      0      0       0    1175
 1992 338   147   144   21.0      4   1.79   3102   2856      0   6340   7892      0    0.0  0.000   1934      0  0.000  0.000  0.097  0.000   1.29   0.00   0.25      0   1934     57.5   0.00   0.00   0.45   4.00   4.00   4.00   4.00   0.00   0.00   0.00   0.00   0.00   0.00      0      0      0       0    1206
 1992 339   148   145   21.0      4   1.76   3037   2919      0   6424   8048      0    0.0  0.000   2093      0  0.000  0.000  0.091  0.000   1.29   0.00   0.26      0   2093     58.1   0.00   0.00   0.45   4.00   4.00   4.00   4.00   0.00   0.00   0.00   0.00   0.00   0.00      0      0      0       0    1238
 1992 340   149   146   21.0      4   1.75   2969   2982      0   6422   8201      0    0.0  0.000   2250      0  0.000  0.000  0.086  0.000   1.30   0.00   0.27      0   2250     58.8   0.00   0.00   0.45   4.00   4.00   4.00   4.00   0.00   0.00   0.00   0.00   0.00   0.00      0      0      0       0    1270
 1992 341   150   147   21.0      5   1.71   2969   2982    223   6422   8424   2458    9.1  0.026   2473      7  0.000  0.000  0.149  0.000   1.26   9.01   0.29      0   2473     57.7   0.00   0.00   0.45   4.00   4.00   4.00   4.00   0.00   0.00   0.00   0.00   0.00   0.00      0      0      0       0    1302
 1992 342   151   148   21.0      5   1.68   2969   2982    383   6429   8584   2458   15.6  0.045   2633      7  0.000  0.000  0.160  0.000   1.22  14.55   0.31      0   2633     56.5   0.00   0.00   0.45   4.00   4.00   4.00   4.00   0.00   0.00   0.00   0.00   0.00   0.00      0      0      0       0    1334
 1992 343   152   149   21.0      5   1.64   2969   2982    550   6441   8751   2458   22.4  0.063   2800      7  0.000  0.000  0.164  0.000   1.19  19.65   0.32      0   2800     55.4   0.00   0.00   0.45   4.00   4.00   4.00   4.00   0.00   0.00   0.00   0.00   0.00   0.00      0      0      0       0    1366
 1992 344   153   150   21.0      5   1.61   2969   2982    721   6435   8922   2458   29.3  0.081   2971      7  0.000  0.000  0.169  0.000   1.16  24.27   0.33      0   2971     54.2   0.00   0.00   0.45   4.00   4.00   4.00   4.00   0.00   0.00   0.00   0.00   0.00   0.00      0      0      0       0    1398
 1992 345   154   151   21.0      5   1.58   2969   2982    905   6431   9106   2458   36.8  0.099   3155      7  0.000  0.000  0.173  0.000   1.13  28.69   0.35      0   3155     53.0   0.00   0.00   0.45   4.00   4.00   4.00   4.00   0.00   0.00   0.00   0.00   0.00   0.00      0      0      0       0    1431
 1992 346   155   152   21.0      5   1.54   2969   2982   1069   6432   9270   2458   43.5  0.115   3319      7  0.000  0.000  0.179  0.000   1.10  32.20   0.36      0   3319     51.9   0.00   0.00   0.45   4.00   4.00   4.00   4.00   0.00   0.00   0.00   0.00   0.00   0.00      0      0      0       0    1463
 1992 347   156   153   21.0      5   1.50   2969   2982   1221   6455   9422   2458   49.7  0.130   3471      7  0.000  0.000  0.183  0.000   1.08  35.17   0.37      0   3471     50.7   0.00   0.00   0.45   4.00   4.00   4.00   4.00   0.00   0.00   0.00   0.00   0.00   0.00      0      0      0       0    1495
 1992 348   157   154   21.0      5   1.47   2969   2982   1405   6472   9606   2458   57.2  0.146   3655      7  0.000  0.000  0.187  0.000   1.05  38.44   0.38      0   3655     49.5   0.00   0.00   0.45   4.00   4.00   4.00   4.00   0.00   0.00   0.00   0.00   0.00   0.00      0      0      0       0    1527
 1992 349   158   155   21.0      5   1.43   2969   2982   1583   6483   9784   2458   64.4  0.162   3833      7  0.000  0.000  0.193  0.000   1.02  41.30   0.39      0   3833     48.3   0.00   0.00   0.45   4.00   4.00   4.00   4.00   0.00   0.00   0.00   0.00   0.00   0.00      0      0      0       0    1560
 1992 350   159   156   21.0      5   1.40   2969   2982   1715   6508   9916   2458   69.8  0.173   3965      7  0.000  0.000  0.200  0.000   1.00  43.25   0.40      0   3965     47.1   0.00   0.00   0.45   4.00   4.00   4.00   4.00   0.00   0.00   0.00   0.00   0.00   0.00      0      0      0       0    1592
 1992 351   160   157   21.0      5   1.36   2969   2982   1879   6507  10080   2458   76.4  0.186   4129      7  0.000  0.000  0.208  0.000   0.97  45.50   0.41      0   4129     45.9   0.00   0.00   0.45   4.00   4.00   4.00   4.00   0.00   0.00   0.00   0.00   0.00   0.00      0      0      0       0    1625
 1992 352   161   158   21.0      5   1.33   2969   2982   2063   6483  10264   2458   83.9  0.201   4313      7  0.000  0.000  0.224  0.000   0.94  47.83   0.42      0   4313     44.7   0.00   0.00   0.45   4.00   4.00   4.00   3.99   0.00   0.00   0.00   0.00   0.00   0.00      0      0      0       0    1657
 1992 353   162   159   21.0      5   1.29   2969   2982   2247   6485  10448   2458   91.4  0.215   4497      7  0.000  0.000  0.243  0.000   0.92  49.96   0.43      0   4497     43.5   0.00   0.00   0.45   4.00   4.00   4.00   4.00   0.00   0.00   0.00   0.00   0.00   0.00      0      0      0       0    1690
 1992 354   163   160   21.0      5   1.26   2969   2982   2431   6454  10632   2458   98.9  0.229   4681      7  0.000  0.000  0.262  0.000   0.89  51.93   0.44      0   4681     42.3   0.00   0.00   0.45   3.98   3.98   3.98   3.98   0.00   0.00   0.00   0.00   0.00   0.00      0      0      0       0    1722
 1992 355   164   161   21.0      5   1.22   2969   2982   2615   6455  10816   2458  106.4  0.242   4865      7  0.000  0.000  0.279  0.000   0.86  53.75   0.45      0   4865     41.1   0.00   0.00   0.45   4.00   4.00   4.00   4.00   0.00   0.00   0.00   0.00   0.00   0.00      0      0      0       0    1754
 1992 356   165   162   21.0      5   1.19   2969   2982   2800   6438  11001   2458  113.9  0.254   5050      7  0.000  0.000  0.299  0.000   0.83  55.44   0.46      0   5050     39.9   0.00   0.00   0.45   4.00   4.00   4.00   4.00   0.00   0.00   0.00   0.00   0.00   0.00      0      0      0       0    1786
 1992 357   166   163   21.0      5   1.15   2969   2900   2984   6405  11103   2458  121.4  0.269   5234      7  0.000  0.000  0.318  0.000   0.82  57.01   0.47      0   5234     38.7   0.00   0.00   0.45   4.00   4.00   4.00   4.00   0.00   0.00   0.00   0.00   0.00   0.00      0      0      0       0    1819
 1992 358   167   164   21.0      5   1.11   2969   2813   3168   6373  11201   2458  128.9  0.283   5418      7  0.000  0.000  0.340  0.000   0.80  58.47   0.48      0   5418     37.5   0.00   0.00   0.45   4.00   4.00   4.00   4.00   0.00   0.00   0.00   0.00   0.00   0.00      0      0      0       0    1851
 1992 359   168   165   21.0      5   1.08   2969   2839   3353   6354  11411   2458  136.4  0.294   5603      7  0.000  0.000  0.347  0.000   0.78  59.84   0.49      0   5603     36.4   0.00   0.00   0.45   4.00   4.00   4.00   4.00   0.00   0.00   0.00   0.00   0.00   0.00      0      0      0       0    1883
 1992 360   169   166   21.0      5   1.05   2969   2850   3518   6328  11587   2458  143.1  0.304   5768      7  0.000  0.000  0.355  0.000   0.75  60.99   0.50      0   5768     35.2   0.00   0.00   0.45   4.00   4.00   4.00   3.99   0.00   0.00   0.00   0.00   0.00   0.00      0      0      0       0    1914
 1992 361   170   167   21.0      5   1.01   2969   2895   3670   6319  11784   2458  149.3  0.311   5920      7  0.000  0.000  0.383  0.000   0.73  61.99   0.50      0   5920     34.1   0.00   0.00   0.45   4.00   4.00   4.00   4.00   0.00   0.00   0.00   0.00   0.00   0.00      0      0      0       0    1946
 1992 362   171   168   21.0      5   0.98   2969   2932   3821   6306  11973   2458  155.5  0.319   6071      7  0.000  0.000  0.403  0.000   0.71  62.94   0.51      0   6071     32.9   0.00   0.00   0.45   4.00   4.00   4.00   4.00   0.00   0.00   0.00   0.00   0.00   0.00      0      0      0       0    1978
 1992 363   172   169   21.0      5   0.94   2969   2943   4005   6280  12168   2458  163.0  0.329   6255      7  0.000  0.000  0.427  0.000   0.68  64.03   0.51      0   6255     31.8   0.00   0.00   0.45   4.00   4.00   4.00   3.99   0.00   0.00   0.00   0.00   0.00   0.00      0      0      0       0    2009
 1992 364   173   170   21.0      5   0.91   2969   2816   4190   6248  12225   2458  170.5  0.343   6440      7  0.000  0.000  0.457  0.000   0.68  65.06   0.53      0   6440     30.7   0.00   0.00   0.45   4.00   4.00   4.00   3.99   0.00   0.00   0.00   0.00   0.00   0.00      0      0      0       0    2040
 1992 365   174   171   21.0      5   0.88   2969   2702   4358   6217  12279   2458  177.3  0.355   6608      7  0.000  0.000  0.483  0.000   0.67  65.95   0.54      0   6608     29.5   0.00   0.00   0.45   4.00   4.00   4.00   3.99   0.00   0.00   0.00   0.00   0.00   0.00      0      0      0       0    2072
 1992 366   175   172   21.0      5   0.84   2969   2612   4501   6186  12332   2458  183.1  0.365   6751      7  0.000  0.000  0.482  0.000   0.67  66.67   0.55      0   6751     28.4   0.00   0.00   0.45   4.00   4.00   4.00   3.99   0.00   0.00   0.00   0.00   0.00   0.00      0      0      0       0    2103
 1993 001   176   173   21.0      5   0.81   2969   2510   4653   6155  12383   2458  189.3  0.376   6903      7  0.000  0.000  0.479  0.000   0.66  67.41   0.56      0   6903     27.4   0.00   0.00   0.45   4.00   4.00   4.00   3.99   0.00   0.00   0.00   0.00   0.00   0.00      0      0      0       0    2134
 1993 002   177   174   21.0      5   0.78   2969   2404   4809   6124  12432   2458  195.7  0.387   7059      7  0.000  0.000  0.488  0.454   0.65  68.13   0.57      0   7059     26.4   0.00   0.00   0.45   4.00   4.00   4.00   3.99   0.00   0.00   0.00   0.00   0.00   0.00      0      0      0       0    2165
 1993 003   178   175   21.0      5   0.75   2969   2292   4968   6094  12480   2458  202.1  0.398   7218      7  0.000  0.000  0.494  0.314   0.64  68.83   0.58      0   7218     25.4   0.00   0.00   0.45   4.00   4.00   4.00   3.99   0.00   0.00   0.00   0.00   0.00   0.00      0      0      0       0    2195
 1993 004   179   176   21.0      5   0.73   2969   2183   5153   6063  12555   2458  209.6  0.410   7402      7  0.000  0.000  0.498  0.313   0.63  69.61   0.59      0   7402     24.5   0.00   0.00   0.45   4.00   4.00   4.00   3.99   0.00   0.00   0.00   0.00   0.00   0.00      0      0      0       0    2226
 1993 005   180   177   21.0      5   0.70   2969   2112   5337   6033  12669   2458  217.1  0.421   7587      7  0.000  0.000  0.507  0.103   0.62  70.34   0.60      0   7587     23.5   0.00   0.00   0.45   4.00   4.00   4.00   3.99   0.00   0.00   0.00   0.00   0.00   0.00      0      0      0       0    2256
 1993 006   181   178   21.0      5   0.67   2969   2065   5521   6003  12805   2458  224.6  0.431   7771      7  0.000  0.000  0.518  0.026   0.60  71.05   0.61      0   7771     22.6   0.00   0.00   0.45   4.00   4.00   4.00   3.99   0.00   0.00   0.00   0.00   0.00   0.00      0      0      0       0    2286
 1993 007   182   179   21.0      5   0.65   2969   1949   5706   5973  12873   2458  232.1  0.443   7955      7  0.000  0.000  0.539  0.000   0.59  71.72   0.62      0   7955     21.7   0.00   0.00   0.45   4.00   4.00   4.00   3.99   0.00   0.00   0.00   0.00   0.00   0.00      0      0      0       0    2316
 1993 008   183   180   21.0      5   0.62   2969   1924   5784   5943  12927   2458  235.4  0.447   8034      7  0.000  0.000  0.564  0.000   0.59  72.00   0.62      0   8034     20.9   0.00   0.00   0.45   4.00   4.00   4.00   3.99   0.00   0.00   0.00   0.00   0.00   0.00      0      0      0       0    2346
 1993 009   184   181   21.0      5   0.60   2969   1924   5907   5913  13050   2458  240.3  0.453   8156      7  0.000  0.000  0.542  0.000   0.57  72.42   0.63      0   8156     20.1   0.00   0.00   0.45   4.00   4.00   4.00   3.99   0.00   0.00   0.00   0.00   0.00   0.00      0      0      0       0    2376
 1993 010   185   182   21.0      5   0.57   2969   1924   6021   5884  13164   2458  245.0  0.457   8271      7  0.000  0.000  0.560  0.000   0.56  72.80   0.63      0   8271     19.3   0.00   0.00   0.45   4.00   4.00   4.00   3.99   0.00   0.00   0.00   0.00   0.00   0.00      0      0      0       0    2405
 1993 011   186   183   21.0      5   0.55   2969   1924   6129   5854  13272   2458  249.4  0.462   8379      7  0.000  0.000  0.579  0.000   0.55  73.15   0.63      0   8379     18.5   0.00   0.00   0.45   4.00   4.00   4.00   3.99   0.00   0.00   0.00   0.00   0.00   0.00      0      0      0       0    2435
 1993 012   187   184   21.0      5   0.53   2969   1924   6228   5825  13371   2458  253.4  0.466   8478      7  0.000  0.000  0.592  0.000   0.54  73.46   0.63      0   8478     17.7   0.00   0.00   0.45   4.00   4.00   4.00   3.99   0.00   0.00   0.00   0.00   0.00   0.00      0      0      0       0    2464
 1993 013   188   185   21.0      5   0.53   2969   1924   6228   5825  13371   2458  253.4  0.466   8478      7  0.000  0.000  0.592  0.000   0.54  73.46   0.63      0   8478     17.7   0.00   0.00   0.45   4.00   4.00   4.00   3.99   0.00   0.00   0.00   0.00   0.00   0.00      0      0      0       0    2464
 1993 014   189   186   21.0      5   0.53   2969   1924   6228   5825  13371   2458  253.4  0.466   8478      7  0.000  0.000  0.592  0.000   0.54  73.46   0.63      0   8478     17.7   0.00   0.00   0.45   4.00   4.00   4.00   3.99   0.00   0.00   0.00   0.00   0.00   0.00      0      0      0       0    2464
 1993 015   190   187   21.0      5   0.53   2969   1924   6228   5825  13371   2458  253.4  0.466   8478      7  0.000  0.000  0.592  0.000   0.54  73.46   0.63      0   8478     17.7   0.00   0.00   0.45   4.00   4.00   4.00   3.99   0.00   0.00   0.00   0.00   0.00   0.00      0      0      0       0    2464
