*SIMULATION OVERVIEW FILE

*DSSAT Cropping System Model Ver. 4.0.2.000               Aug 23, 2016; 18:04:57
                                                                                
*RUN   1        : UYSB                                                          
 MODEL          : CRGRO040 - SOYBEAN                                            
 EXPERIMENT     : UYSB0287 SN late to create DSS                                
 TREATMENT  1   : UYSB                                                          
                                                                                
 CROP           : SOYBEAN        CULTIVAR : GM 4 UY          ECOTYPE :SB0401    
 STARTING DATE  : AUG 20 1999                                                   
 PLANTING DATE  : AUG 23 1999    PLANTS/m2 :  7.0     ROW SPACING :  15.cm      
 WEATHER        : UYTA   1999                                                   
 SOIL           : UYSS0N2002     TEXTURE :       -  N20-02    SNIA CLAY RISS    
 SOIL INITIAL C : DEPTH:125cm EXTR. H2O:186.3mm  NO3: 30.1kg/ha  NH4: 23.9kg/ha 
 WATER BALANCE  : RAINFED                                                       
 IRRIGATION     : NOT IRRIGATED                                                 
 NITROGEN BAL.  : SOIL-N, N-UPTAKE & DYNAMIC N-FIXATION SIMULATION              
 N-FERTILIZER   : NO N-FERTILIZER APPLIED                                       
 RESIDUE/MANURE : INITIAL :     0 kg/ha ;       0 kg/ha IN     0 APPLICATIONS   
 ENVIRONM. OPT. : DAYL=    0.00  SRAD=    0.00  TMAX=    0.00  TMIN=    0.00    
                  RAIN=    0.00  CO2 = R330.00  DEW =    0.00  WIND=    0.00    
 SIMULATION OPT : WATER   :Y  NITROGEN:Y  N-FIX:Y  PHOSPH :N  PESTS  :N         
                  PHOTO   :C  ET      :R  INFIL:S  HYDROL :R  SOM    :G         
 MANAGEMENT OPT : PLANTING:R  IRRIG   :N  FERT :N  RESIDUE:N  HARVEST:M  WTH:M  
                                                                                
*SUMMARY OF SOIL AND GENETIC INPUT PARAMETERS                                   
                                                                                
   SOIL LOWER UPPER   SAT  EXTR  INIT   ROOT   BULK     pH    NO3    NH4    ORG 
  DEPTH LIMIT LIMIT    SW    SW    SW   DIST   DENS                          C  
   cm   cm3/cm3    cm3/cm3    cm3/cm3         g/cm3         ugN/g  ugN/g     %  
------------------------------------------------------------------------------- 
  0-  5 0.331 0.542 0.585 0.211 0.394   1.00   1.11   6.50   5.00   1.50   2.74 
  5- 15 0.331 0.542 0.585 0.211 0.394   1.00   1.11   6.50   5.00   1.50   2.74 
 15- 30 0.331 0.542 0.585 0.211 0.394   1.00   1.11   6.50   5.00   1.50   2.74 
 30- 45 0.290 0.438 0.491 0.148 0.334   0.43   1.26   6.50   4.60   1.50   1.07 
 45- 60 0.292 0.431 0.480 0.138 0.375   0.39   1.29   6.27   2.45   1.50   0.90 
 60- 90 0.293 0.419 0.466 0.126 0.419   0.32   1.34   6.00   0.00   1.50   0.64 
 90-108 0.286 0.408 0.460 0.122 0.408   0.23   1.36   6.00   0.00   1.50   0.35 
108-125 0.276 0.395 0.456 0.119 0.395   0.12   1.38   6.00   0.00   1.50   0.14 
                                                                                
TOT-125  37.3  55.9  62.1  18.6  49.1  <--cm   -  kg/ha-->   30.1   23.9 166127 
SOIL ALBEDO    : 0.09      EVAPORATION LIMIT : 6.00         MIN. FACTOR  : 1.00 
RUNOFF CURVE # :10.00      DRAINAGE RATE     : 0.40         FERT. FACTOR : 1.00 
                                                                                
 SOYBEAN    CULTIVAR :UY0141-GM 4 UY            ECOTYPE :SB0401                 
 CSDVAR :13.39  PPSEN  : 0.29  EMG-FLW:21.50  FLW-FSD:18.00  FSD-PHM : 32.00    
 WTPSD  :0.190  SDPDVR : 2.20  SDFDUR :23.00  PODDUR :10.00  XFRUIT  :  1.00    
                                                                                
                                                                                
                                                                                
                                                                                
*SIMULATED CROP AND SOIL STATUS AT MAIN DEVELOPMENT STAGES

 RUN NO.     1     UYSB                    

        CROP GROWTH   BIOMASS         LEAF   CROP N     STRESS  
   DATE  AGE STAGE      kg/ha    LAI   NUM  kg/ha  %   H2O    N 
 ------  --- ---------- -----  -----  ----  ---  ---  ----  ----
 20 AUG    0 Start Sim      0   0.00   0.0    0  0.0  0.00  0.00
 23 AUG    0 Sowing         0   0.00   0.0    0  0.0  0.00  0.00
  3 SEP   11 Emergence      4   0.01   0.0    0  5.1  0.00  0.00
  3 SEP   11 End Juven.     4   0.01   0.0    0  5.1  0.00  0.00
 19 SEP   27 Unifoliate    10   0.01   1.1    0  4.9  0.00  0.00
 20 SEP   28 Flower Ind    11   0.02   1.2    1  4.9  0.00  0.00
  2 NOV   71 First Flwr   439   0.69   7.4   19  4.3  0.00  0.00
 17 NOV   86 First Pod   1680   1.66   9.8   65  3.9  0.00  0.00
  8 DEC  107 First Seed  4548   2.39  13.9  144  3.2  0.03  0.00
 22 DEC  121 End Pod     4645   1.74  15.2  127  2.7  0.58  0.00
 29 DEC  128 End Leaf    3909   1.19  15.3  105  2.7  0.79  0.00
 30 DEC  129 End Msnode  3840   1.12  15.3  103  2.7  0.56  0.00
 12 JAN  142 Phys. Mat   3645   1.02  15.3  100  2.7  0.91  0.00
 24 JAN  154 Harv. Mat   2865   0.07  15.3   81  2.8  0.12  0.00
 24 JAN  154 Harvest     2865   0.07  15.3   81  2.8  0.00  0.00


*MAIN GROWTH AND DEVELOPMENT VARIABLES

@     VARIABLE                          SIMULATED     MEASURED
      --------                          ---------     --------
      Anthesis day (dap)                       71          -99
      First pod day (dap)                      86          -99
      First seed day (dap)                    107          -99
      Physiological maturity day (dap)        142          -99
      Yield at harvest maturity (kg [dm]/     805          -99
      Pod/Ear/Panicle weight at maturity     1611          -99
      Number at maturity (no/m2)              967          -99
      Unit wt at maturity (g [dm]/unit)    0.0833          -99
      Number at maturity (no/unit)           2.20          -99
      Tops weight at maturity (kg [dm]/ha    2865          -99
      By-product produced (stalk) at matu    2060          -99
      Leaf area index, maximum               2.40          -99
      Harvest index at maturity             0.281          -99
      Threshing % at maturity               50.01          -99
      Grain N at maturity (kg/ha)              51          -99
      Tops N at maturity (kg/ha)               81          -99
      Stem N at maturity (kg/ha)               12          -99
      Grain N at maturity (%)                6.36          -99
      Tops weight at anthesis (kg [dm]/ha     439          -99
      Tops N at anthesis (kg/ha)               19          -99
      Leaf number per stem at maturity      15.34          -99
      Grain oil at maturity (%)             20.36          -99
      Canopy height (m)                      0.66          -99
      Harvest maturity day (dap)              154          -99


*ENVIRONMENTAL AND STRESS FACTORS

 |-----Development Phase------|-------------Environment--------------|---------Stress----------|
                              |--------Average-------|---Cumulative--|  (0=Min, 1=Max Stress)  |
                         Time  Temp  Temp Solar Photop         Evapo |----Water---|--Nitrogen--|
                         Span   Max   Min   Rad  [day]   Rain  Trans  Photo         Photo
                         days    øC    øC MJ/m2     hr     mm     mm  synth Growth  synth Growth
------------------------------------------------------------------------------------------------
 Emergence -First Flower   60  21.4  10.5  17.3  12.38  150.3  104.2  0.000  0.000  0.000  0.000
 First Flower-First Seed   36  25.8  12.5  24.4  13.71   45.8  153.3  0.002  0.020  0.000  0.000
 First Seed - Phys. Mat.   35  31.2  16.0  26.8  14.03   26.2   69.3  0.643  0.743  0.079  0.001
 Emergence  - Phys. Mat.  131  25.2  12.6  21.8  13.19  222.3  326.8  0.172  0.204  0.001  0.000

                   Soybean YIELD :      805 kg/ha    [Dry weight] 

************************************************************************************************

*DSSAT Cropping System Model Ver. 4.0.2.000               Aug 23, 2016; 18:04:57
                                                                                
*RUN   2        : UYSB                                                          
 MODEL          : CRGRO040 - SOYBEAN                                            
 EXPERIMENT     : UYSB0287 SN late to create DSS                                
 TREATMENT  1   : UYSB                                                          
                                                                                
 CROP           : SOYBEAN        CULTIVAR : GM 4 UY          ECOTYPE :SB0401    
 STARTING DATE  : AUG 20 1999                                                   
 PLANTING DATE  : AUG 23 1999    PLANTS/m2 :  7.0     ROW SPACING :  15.cm      
 WEATHER        : UYTA   1999                                                   
 SOIL           : UYSS0N2002     TEXTURE :       -  N20-02    SNIA CLAY RISS    
 SOIL INITIAL C : DEPTH:125cm EXTR. H2O:186.3mm  NO3: 30.1kg/ha  NH4: 23.9kg/ha 
 WATER BALANCE  : RAINFED                                                       
 IRRIGATION     : NOT IRRIGATED                                                 
 NITROGEN BAL.  : SOIL-N, N-UPTAKE & DYNAMIC N-FIXATION SIMULATION              
 N-FERTILIZER   : NO N-FERTILIZER APPLIED                                       
 RESIDUE/MANURE : INITIAL :     0 kg/ha ;       0 kg/ha IN     0 APPLICATIONS   
 ENVIRONM. OPT. : DAYL=    0.00  SRAD=    0.00  TMAX=    0.00  TMIN=    0.00    
                  RAIN=    0.00  CO2 = R330.00  DEW =    0.00  WIND=    0.00    
 SIMULATION OPT : WATER   :Y  NITROGEN:Y  N-FIX:Y  PHOSPH :N  PESTS  :N         
                  PHOTO   :C  ET      :R  INFIL:S  HYDROL :R  SOM    :G         
 MANAGEMENT OPT : PLANTING:R  IRRIG   :N  FERT :N  RESIDUE:N  HARVEST:M  WTH:M  
                                                                                
*SUMMARY OF SOIL AND GENETIC INPUT PARAMETERS                                   
                                                                                
   SOIL LOWER UPPER   SAT  EXTR  INIT   ROOT   BULK     pH    NO3    NH4    ORG 
  DEPTH LIMIT LIMIT    SW    SW    SW   DIST   DENS                          C  
   cm   cm3/cm3    cm3/cm3    cm3/cm3         g/cm3         ugN/g  ugN/g     %  
------------------------------------------------------------------------------- 
  0-  5 0.331 0.542 0.585 0.211 0.394   1.00   1.11   6.50   5.00   1.50   2.74 
  5- 15 0.331 0.542 0.585 0.211 0.394   1.00   1.11   6.50   5.00   1.50   2.74 
 15- 30 0.331 0.542 0.585 0.211 0.394   1.00   1.11   6.50   5.00   1.50   2.74 
 30- 45 0.290 0.438 0.491 0.148 0.334   0.43   1.26   6.50   4.60   1.50   1.07 
 45- 60 0.292 0.431 0.480 0.138 0.375   0.39   1.29   6.27   2.45   1.50   0.90 
 60- 90 0.293 0.419 0.466 0.126 0.419   0.32   1.34   6.00   0.00   1.50   0.64 
 90-108 0.286 0.408 0.460 0.122 0.408   0.23   1.36   6.00   0.00   1.50   0.35 
108-125 0.276 0.395 0.456 0.119 0.395   0.12   1.38   6.00   0.00   1.50   0.14 
                                                                                
TOT-125  37.3  55.9  62.1  18.6  49.1  <--cm   -  kg/ha-->   30.1   23.9 166127 
SOIL ALBEDO    : 0.09      EVAPORATION LIMIT : 6.00         MIN. FACTOR  : 1.00 
RUNOFF CURVE # :10.00      DRAINAGE RATE     : 0.40         FERT. FACTOR : 1.00 
                                                                                
 SOYBEAN    CULTIVAR :UY0141-GM 4 UY            ECOTYPE :SB0401                 
 CSDVAR :13.39  PPSEN  : 0.29  EMG-FLW:21.50  FLW-FSD:18.00  FSD-PHM : 32.00    
 WTPSD  :0.190  SDPDVR : 2.20  SDFDUR :23.00  PODDUR :10.00  XFRUIT  :  1.00    
                                                                                
                                                                                
                                                                                
                                                                                
*SIMULATED CROP AND SOIL STATUS AT MAIN DEVELOPMENT STAGES

 RUN NO.     2     UYSB                    

        CROP GROWTH   BIOMASS         LEAF   CROP N     STRESS  
   DATE  AGE STAGE      kg/ha    LAI   NUM  kg/ha  %   H2O    N 
 ------  --- ---------- -----  -----  ----  ---  ---  ----  ----
 19 AUG    0 Start Sim      0   0.00   0.0    0  0.0  0.00  0.00
 22 AUG    0 Sowing         0   0.00   0.0    0  0.0  0.00  0.00
  1 SEP   10 Emergence      4   0.01   0.0    0  5.1  0.00  0.00
  1 SEP   10 End Juven.     4   0.01   0.0    0  5.1  0.00  0.00
 20 SEP   29 Unifoliate     9   0.02   1.1    0  4.9  0.00  0.00
 21 SEP   30 Flower Ind    10   0.02   1.2    0  5.0  0.00  0.00
  2 NOV   72 First Flwr   380   0.56   7.4   16  4.3  0.00  0.00
 16 NOV   86 First Pod   1255   1.33   9.6   51  4.1  0.00  0.00
  9 DEC  109 First Seed  4173   2.10  14.0  129  3.1  0.00  0.01
 20 DEC  120 End Leaf    5529   2.02  16.3  167  3.0  0.01  0.00
 25 DEC  125 End Msnode  5934   1.96  17.3  179  3.0  0.00  0.00
 27 DEC  127 End Pod     6011   1.92  17.3  181  3.0  0.00  0.00
 27 JAN  158 Phys. Mat   7656   1.42  17.3  259  3.4  0.00  0.00
  8 FEB  170 Harv. Mat   6350   0.09  17.3  231  3.6  0.00  0.02
  8 FEB  170 Harvest     6350   0.09  17.3  231  3.6  0.00  0.00


*MAIN GROWTH AND DEVELOPMENT VARIABLES

@     VARIABLE                          SIMULATED     MEASURED
      --------                          ---------     --------
      Anthesis day (dap)                       72          -99
      First pod day (dap)                      86          -99
      First seed day (dap)                    109          -99
      Physiological maturity day (dap)        158          -99
      Yield at harvest maturity (kg [dm]/    3138          -99
      Pod/Ear/Panicle weight at maturity     4687          -99
      Number at maturity (no/m2)             2080          -99
      Unit wt at maturity (g [dm]/unit)    0.1508          -99
      Number at maturity (no/unit)           2.20          -99
      Tops weight at maturity (kg [dm]/ha    6350          -99
      By-product produced (stalk) at matu    3210          -99
      Leaf area index, maximum               2.10          -99
      Harvest index at maturity             0.494          -99
      Threshing % at maturity               66.94          -99
      Grain N at maturity (kg/ha)             194          -99
      Tops N at maturity (kg/ha)              231          -99
      Stem N at maturity (kg/ha)               12          -99
      Grain N at maturity (%)                6.20          -99
      Tops weight at anthesis (kg [dm]/ha     380          -99
      Tops N at anthesis (kg/ha)               16          -99
      Leaf number per stem at maturity      17.28          -99
      Grain oil at maturity (%)             20.29          -99
      Canopy height (m)                      0.78          -99
      Harvest maturity day (dap)              170          -99


*ENVIRONMENTAL AND STRESS FACTORS

 |-----Development Phase------|-------------Environment--------------|---------Stress----------|
                              |--------Average-------|---Cumulative--|  (0=Min, 1=Max Stress)  |
                         Time  Temp  Temp Solar Photop         Evapo |----Water---|--Nitrogen--|
                         Span   Max   Min   Rad  [day]   Rain  Trans  Photo         Photo
                         days    øC    øC MJ/m2     hr     mm     mm  synth Growth  synth Growth
------------------------------------------------------------------------------------------------
 Emergence -First Flower   62  20.6  10.5  16.3  12.38  376.7  138.2  0.000  0.000  0.000  0.000
 First Flower-First Seed   37  24.6  12.4  23.4  13.74   65.5  169.3  0.000  0.000  0.000  0.005
 First Seed - Phys. Mat.   49  28.5  16.7  24.1  13.96  280.9  263.0  0.000  0.003  0.084  0.000
 Emergence  - Phys. Mat.  148  24.2  13.0  20.7  13.24  723.1  570.5  0.000  0.001  0.009  0.001

                   Soybean YIELD :     3138 kg/ha    [Dry weight] 

************************************************************************************************

*DSSAT Cropping System Model Ver. 4.0.2.000               Aug 23, 2016; 18:04:57
                                                                                
*RUN   3        : UYSB                                                          
 MODEL          : CRGRO040 - SOYBEAN                                            
 EXPERIMENT     : UYSB0287 SN late to create DSS                                
 TREATMENT  1   : UYSB                                                          
                                                                                
 CROP           : SOYBEAN        CULTIVAR : GM 4 UY          ECOTYPE :SB0401    
 STARTING DATE  : AUG 20 1999                                                   
 PLANTING DATE  : AUG 23 1999    PLANTS/m2 :  7.0     ROW SPACING :  15.cm      
 WEATHER        : UYTA   1999                                                   
 SOIL           : UYSS0N2002     TEXTURE :       -  N20-02    SNIA CLAY RISS    
 SOIL INITIAL C : DEPTH:125cm EXTR. H2O:186.3mm  NO3: 30.1kg/ha  NH4: 23.9kg/ha 
 WATER BALANCE  : RAINFED                                                       
 IRRIGATION     : NOT IRRIGATED                                                 
 NITROGEN BAL.  : SOIL-N, N-UPTAKE & DYNAMIC N-FIXATION SIMULATION              
 N-FERTILIZER   : NO N-FERTILIZER APPLIED                                       
 RESIDUE/MANURE : INITIAL :     0 kg/ha ;       0 kg/ha IN     0 APPLICATIONS   
 ENVIRONM. OPT. : DAYL=    0.00  SRAD=    0.00  TMAX=    0.00  TMIN=    0.00    
                  RAIN=    0.00  CO2 = R330.00  DEW =    0.00  WIND=    0.00    
 SIMULATION OPT : WATER   :Y  NITROGEN:Y  N-FIX:Y  PHOSPH :N  PESTS  :N         
                  PHOTO   :C  ET      :R  INFIL:S  HYDROL :R  SOM    :G         
 MANAGEMENT OPT : PLANTING:R  IRRIG   :N  FERT :N  RESIDUE:N  HARVEST:M  WTH:M  
                                                                                
*SUMMARY OF SOIL AND GENETIC INPUT PARAMETERS                                   
                                                                                
   SOIL LOWER UPPER   SAT  EXTR  INIT   ROOT   BULK     pH    NO3    NH4    ORG 
  DEPTH LIMIT LIMIT    SW    SW    SW   DIST   DENS                          C  
   cm   cm3/cm3    cm3/cm3    cm3/cm3         g/cm3         ugN/g  ugN/g     %  
------------------------------------------------------------------------------- 
  0-  5 0.331 0.542 0.585 0.211 0.394   1.00   1.11   6.50   5.00   1.50   2.74 
  5- 15 0.331 0.542 0.585 0.211 0.394   1.00   1.11   6.50   5.00   1.50   2.74 
 15- 30 0.331 0.542 0.585 0.211 0.394   1.00   1.11   6.50   5.00   1.50   2.74 
 30- 45 0.290 0.438 0.491 0.148 0.334   0.43   1.26   6.50   4.60   1.50   1.07 
 45- 60 0.292 0.431 0.480 0.138 0.375   0.39   1.29   6.27   2.45   1.50   0.90 
 60- 90 0.293 0.419 0.466 0.126 0.419   0.32   1.34   6.00   0.00   1.50   0.64 
 90-108 0.286 0.408 0.460 0.122 0.408   0.23   1.36   6.00   0.00   1.50   0.35 
108-125 0.276 0.395 0.456 0.119 0.395   0.12   1.38   6.00   0.00   1.50   0.14 
                                                                                
TOT-125  37.3  55.9  62.1  18.6  49.1  <--cm   -  kg/ha-->   30.1   23.9 166127 
SOIL ALBEDO    : 0.09      EVAPORATION LIMIT : 6.00         MIN. FACTOR  : 1.00 
RUNOFF CURVE # :10.00      DRAINAGE RATE     : 0.40         FERT. FACTOR : 1.00 
                                                                                
 SOYBEAN    CULTIVAR :UY0141-GM 4 UY            ECOTYPE :SB0401                 
 CSDVAR :13.39  PPSEN  : 0.29  EMG-FLW:21.50  FLW-FSD:18.00  FSD-PHM : 32.00    
 WTPSD  :0.190  SDPDVR : 2.20  SDFDUR :23.00  PODDUR :10.00  XFRUIT  :  1.00    
                                                                                
                                                                                
                                                                                
                                                                                
*SIMULATED CROP AND SOIL STATUS AT MAIN DEVELOPMENT STAGES

 RUN NO.     3     UYSB                    

        CROP GROWTH   BIOMASS         LEAF   CROP N     STRESS  
   DATE  AGE STAGE      kg/ha    LAI   NUM  kg/ha  %   H2O    N 
 ------  --- ---------- -----  -----  ----  ---  ---  ----  ----
 20 AUG    0 Start Sim      0   0.00   0.0    0  0.0  0.00  0.00
 23 AUG    0 Sowing         0   0.00   0.0    0  0.0  0.00  0.00
  2 SEP   10 Emergence      4   0.01   0.1    0  5.1  0.00  0.00
  2 SEP   10 End Juven.     4   0.01   0.1    0  5.1  0.00  0.00
 22 SEP   30 Unifoliate    10   0.02   1.2    0  4.9  0.00  0.00
 22 SEP   30 Flower Ind    10   0.02   1.2    0  4.9  0.00  0.00
 28 OCT   66 First Flwr   293   0.50   7.0   13  4.3  0.00  0.00
 10 NOV   79 First Pod    999   1.19   9.3   39  3.9  0.00  0.00
  1 DEC  100 First Seed  3335   1.79  13.3  101  3.0  0.00  0.01
 14 DEC  113 End Leaf    4549   1.72  15.6  133  2.9  0.00  0.00
 18 DEC  117 End Msnode  4909   1.68  16.4  144  2.9  0.00  0.00
 20 DEC  119 End Pod     5040   1.65  16.4  148  2.9  0.00  0.00
 20 JAN  150 Phys. Mat   6556   1.18  16.4  207  3.2  0.14  0.00
  1 FEB  162 Harv. Mat   5269   0.08  16.4  180  3.4  0.19  0.00
  1 FEB  162 Harvest     5269   0.08  16.4  180  3.4  0.00  0.00


*MAIN GROWTH AND DEVELOPMENT VARIABLES

@     VARIABLE                          SIMULATED     MEASURED
      --------                          ---------     --------
      Anthesis day (dap)                       66          -99
      First pod day (dap)                      79          -99
      First seed day (dap)                    100          -99
      Physiological maturity day (dap)        150          -99
      Yield at harvest maturity (kg [dm]/    2323          -99
      Pod/Ear/Panicle weight at maturity     3802          -99
      Number at maturity (no/m2)             1804          -99
      Unit wt at maturity (g [dm]/unit)    0.1288          -99
      Number at maturity (no/unit)           2.20          -99
      Tops weight at maturity (kg [dm]/ha    5269          -99
      By-product produced (stalk) at matu    2950          -99
      Leaf area index, maximum               1.80          -99
      Harvest index at maturity             0.441          -99
      Threshing % at maturity               61.09          -99
      Grain N at maturity (kg/ha)             142          -99
      Tops N at maturity (kg/ha)              180          -99
      Stem N at maturity (kg/ha)               12          -99
      Grain N at maturity (%)                6.13          -99
      Tops weight at anthesis (kg [dm]/ha     293          -99
      Tops N at anthesis (kg/ha)               13          -99
      Leaf number per stem at maturity      16.41          -99
      Grain oil at maturity (%)             20.15          -99
      Canopy height (m)                      0.76          -99
      Harvest maturity day (dap)              162          -99


*ENVIRONMENTAL AND STRESS FACTORS

 |-----Development Phase------|-------------Environment--------------|---------Stress----------|
                              |--------Average-------|---Cumulative--|  (0=Min, 1=Max Stress)  |
                         Time  Temp  Temp Solar Photop         Evapo |----Water---|--Nitrogen--|
                         Span   Max   Min   Rad  [day]   Rain  Trans  Photo         Photo
                         days    øC    øC MJ/m2     hr     mm     mm  synth Growth  synth Growth
------------------------------------------------------------------------------------------------
 Emergence -First Flower   56  20.5  11.9  14.5  12.28  441.0  111.4  0.000  0.000  0.000  0.000
 First Flower-First Seed   34  24.4  13.9  21.4  13.59  218.0  142.3  0.000  0.000  0.000  0.007
 First Seed - Phys. Mat.   50  26.7  15.0  25.1  13.99   93.3  241.3  0.052  0.087  0.083  0.000
 Emergence  - Phys. Mat.  140  23.7  13.5  19.9  13.21  752.3  494.9  0.019  0.031  0.012  0.002

                   Soybean YIELD :     2323 kg/ha    [Dry weight] 

************************************************************************************************

*DSSAT Cropping System Model Ver. 4.0.2.000               Aug 23, 2016; 18:04:57
                                                                                
*RUN   4        : UYSB                                                          
 MODEL          : CRGRO040 - SOYBEAN                                            
 EXPERIMENT     : UYSB0287 SN late to create DSS                                
 TREATMENT  1   : UYSB                                                          
                                                                                
 CROP           : SOYBEAN        CULTIVAR : GM 4 UY          ECOTYPE :SB0401    
 STARTING DATE  : AUG 20 1999                                                   
 PLANTING DATE  : AUG 23 1999    PLANTS/m2 :  7.0     ROW SPACING :  15.cm      
 WEATHER        : UYTA   1999                                                   
 SOIL           : UYSS0N2002     TEXTURE :       -  N20-02    SNIA CLAY RISS    
 SOIL INITIAL C : DEPTH:125cm EXTR. H2O:186.3mm  NO3: 30.1kg/ha  NH4: 23.9kg/ha 
 WATER BALANCE  : RAINFED                                                       
 IRRIGATION     : NOT IRRIGATED                                                 
 NITROGEN BAL.  : SOIL-N, N-UPTAKE & DYNAMIC N-FIXATION SIMULATION              
 N-FERTILIZER   : NO N-FERTILIZER APPLIED                                       
 RESIDUE/MANURE : INITIAL :     0 kg/ha ;       0 kg/ha IN     0 APPLICATIONS   
 ENVIRONM. OPT. : DAYL=    0.00  SRAD=    0.00  TMAX=    0.00  TMIN=    0.00    
                  RAIN=    0.00  CO2 = R330.00  DEW =    0.00  WIND=    0.00    
 SIMULATION OPT : WATER   :Y  NITROGEN:Y  N-FIX:Y  PHOSPH :N  PESTS  :N         
                  PHOTO   :C  ET      :R  INFIL:S  HYDROL :R  SOM    :G         
 MANAGEMENT OPT : PLANTING:R  IRRIG   :N  FERT :N  RESIDUE:N  HARVEST:M  WTH:M  
                                                                                
*SUMMARY OF SOIL AND GENETIC INPUT PARAMETERS                                   
                                                                                
   SOIL LOWER UPPER   SAT  EXTR  INIT   ROOT   BULK     pH    NO3    NH4    ORG 
  DEPTH LIMIT LIMIT    SW    SW    SW   DIST   DENS                          C  
   cm   cm3/cm3    cm3/cm3    cm3/cm3         g/cm3         ugN/g  ugN/g     %  
------------------------------------------------------------------------------- 
  0-  5 0.331 0.542 0.585 0.211 0.394   1.00   1.11   6.50   5.00   1.50   2.74 
  5- 15 0.331 0.542 0.585 0.211 0.394   1.00   1.11   6.50   5.00   1.50   2.74 
 15- 30 0.331 0.542 0.585 0.211 0.394   1.00   1.11   6.50   5.00   1.50   2.74 
 30- 45 0.290 0.438 0.491 0.148 0.334   0.43   1.26   6.50   4.60   1.50   1.07 
 45- 60 0.292 0.431 0.480 0.138 0.375   0.39   1.29   6.27   2.45   1.50   0.90 
 60- 90 0.293 0.419 0.466 0.126 0.419   0.32   1.34   6.00   0.00   1.50   0.64 
 90-108 0.286 0.408 0.460 0.122 0.408   0.23   1.36   6.00   0.00   1.50   0.35 
108-125 0.276 0.395 0.456 0.119 0.395   0.12   1.38   6.00   0.00   1.50   0.14 
                                                                                
TOT-125  37.3  55.9  62.1  18.6  49.1  <--cm   -  kg/ha-->   30.1   23.9 166127 
SOIL ALBEDO    : 0.09      EVAPORATION LIMIT : 6.00         MIN. FACTOR  : 1.00 
RUNOFF CURVE # :10.00      DRAINAGE RATE     : 0.40         FERT. FACTOR : 1.00 
                                                                                
 SOYBEAN    CULTIVAR :UY0141-GM 4 UY            ECOTYPE :SB0401                 
 CSDVAR :13.39  PPSEN  : 0.29  EMG-FLW:21.50  FLW-FSD:18.00  FSD-PHM : 32.00    
 WTPSD  :0.190  SDPDVR : 2.20  SDFDUR :23.00  PODDUR :10.00  XFRUIT  :  1.00    
                                                                                
                                                                                
                                                                                
                                                                                
*SIMULATED CROP AND SOIL STATUS AT MAIN DEVELOPMENT STAGES

 RUN NO.     4     UYSB                    

        CROP GROWTH   BIOMASS         LEAF   CROP N     STRESS  
   DATE  AGE STAGE      kg/ha    LAI   NUM  kg/ha  %   H2O    N 
 ------  --- ---------- -----  -----  ----  ---  ---  ----  ----
 20 AUG    0 Start Sim      0   0.00   0.0    0  0.0  0.00  0.00
 23 AUG    0 Sowing         0   0.00   0.0    0  0.0  0.00  0.00
 30 AUG    7 Emergence      4   0.01   0.0    0  5.1  0.00  0.00
 30 AUG    7 End Juven.     4   0.01   0.0    0  5.1  0.00  0.00
 23 SEP   31 Unifoliate    11   0.01   1.1    1  4.9  0.00  0.00
 25 SEP   33 Flower Ind    13   0.02   1.3    1  5.0  0.00  0.00
 26 OCT   64 First Flwr   273   0.43   7.0   11  4.0  0.00  0.00
  9 NOV   78 First Pod    861   0.96   9.2   36  4.2  0.00  0.00
 27 NOV   96 First Seed  2524   1.43  13.2   75  3.0  0.00  0.04
  9 DEC  108 End Leaf    3358   1.35  15.6  101  3.0  0.00  0.00
 12 DEC  111 End Msnode  3546   1.32  16.1  108  3.0  0.00  0.00
 15 DEC  114 End Pod     3726   1.29  16.1  115  3.1  0.00  0.00
 17 JAN  147 Phys. Mat   5245   0.95  16.1  197  3.8  0.00  0.01
 29 JAN  159 Harv. Mat   4600   0.06  16.1  187  4.1  0.00  0.04
 29 JAN  159 Harvest     4600   0.06  16.1  187  4.1  0.00  0.00


*MAIN GROWTH AND DEVELOPMENT VARIABLES

@     VARIABLE                          SIMULATED     MEASURED
      --------                          ---------     --------
      Anthesis day (dap)                       64          -99
      First pod day (dap)                      78          -99
      First seed day (dap)                     96          -99
      Physiological maturity day (dap)        147          -99
      Yield at harvest maturity (kg [dm]/    2660          -99
      Pod/Ear/Panicle weight at maturity     3773          -99
      Number at maturity (no/m2)             1519          -99
      Unit wt at maturity (g [dm]/unit)    0.1751          -99
      Number at maturity (no/unit)           2.20          -99
      Tops weight at maturity (kg [dm]/ha    4600          -99
      By-product produced (stalk) at matu    1940          -99
      Leaf area index, maximum               1.43          -99
      Harvest index at maturity             0.578          -99
      Threshing % at maturity               70.49          -99
      Grain N at maturity (kg/ha)             165          -99
      Tops N at maturity (kg/ha)              187          -99
      Stem N at maturity (kg/ha)                6          -99
      Grain N at maturity (%)                6.22          -99
      Tops weight at anthesis (kg [dm]/ha     273          -99
      Tops N at anthesis (kg/ha)               11          -99
      Leaf number per stem at maturity      16.14          -99
      Grain oil at maturity (%)             20.32          -99
      Canopy height (m)                      0.80          -99
      Harvest maturity day (dap)              159          -99


*ENVIRONMENTAL AND STRESS FACTORS

 |-----Development Phase------|-------------Environment--------------|---------Stress----------|
                              |--------Average-------|---Cumulative--|  (0=Min, 1=Max Stress)  |
                         Time  Temp  Temp Solar Photop         Evapo |----Water---|--Nitrogen--|
                         Span   Max   Min   Rad  [day]   Rain  Trans  Photo         Photo
                         days    øC    øC MJ/m2     hr     mm     mm  synth Growth  synth Growth
------------------------------------------------------------------------------------------------
 Emergence -First Flower   57  20.9  10.9  16.0  12.20  546.2  125.2  0.000  0.000  0.000  0.001
 First Flower-First Seed   32  24.7  14.8  20.0  13.52  339.2  128.4  0.000  0.000  0.000  0.021
 First Seed - Phys. Mat.   51  26.9  16.9  21.6  14.00  317.1  216.8  0.000  0.000  0.122  0.007
 Emergence  - Phys. Mat.  140  24.0  14.0  18.9  13.16   1203    470  0.000  0.000  0.026  0.008

                   Soybean YIELD :     2660 kg/ha    [Dry weight] 

************************************************************************************************

*DSSAT Cropping System Model Ver. 4.0.2.000               Aug 23, 2016; 18:04:57
                                                                                
*RUN   5        : UYSB                                                          
 MODEL          : CRGRO040 - SOYBEAN                                            
 EXPERIMENT     : UYSB0287 SN late to create DSS                                
 TREATMENT  1   : UYSB                                                          
                                                                                
 CROP           : SOYBEAN        CULTIVAR : GM 4 UY          ECOTYPE :SB0401    
 STARTING DATE  : AUG 20 1999                                                   
 PLANTING DATE  : AUG 23 1999    PLANTS/m2 :  7.0     ROW SPACING :  15.cm      
 WEATHER        : UYTA   1999                                                   
 SOIL           : UYSS0N2002     TEXTURE :       -  N20-02    SNIA CLAY RISS    
 SOIL INITIAL C : DEPTH:125cm EXTR. H2O:186.3mm  NO3: 30.1kg/ha  NH4: 23.9kg/ha 
 WATER BALANCE  : RAINFED                                                       
 IRRIGATION     : NOT IRRIGATED                                                 
 NITROGEN BAL.  : SOIL-N, N-UPTAKE & DYNAMIC N-FIXATION SIMULATION              
 N-FERTILIZER   : NO N-FERTILIZER APPLIED                                       
 RESIDUE/MANURE : INITIAL :     0 kg/ha ;       0 kg/ha IN     0 APPLICATIONS   
 ENVIRONM. OPT. : DAYL=    0.00  SRAD=    0.00  TMAX=    0.00  TMIN=    0.00    
                  RAIN=    0.00  CO2 = R330.00  DEW =    0.00  WIND=    0.00    
 SIMULATION OPT : WATER   :Y  NITROGEN:Y  N-FIX:Y  PHOSPH :N  PESTS  :N         
                  PHOTO   :C  ET      :R  INFIL:S  HYDROL :R  SOM    :G         
 MANAGEMENT OPT : PLANTING:R  IRRIG   :N  FERT :N  RESIDUE:N  HARVEST:M  WTH:M  
                                                                                
*SUMMARY OF SOIL AND GENETIC INPUT PARAMETERS                                   
                                                                                
   SOIL LOWER UPPER   SAT  EXTR  INIT   ROOT   BULK     pH    NO3    NH4    ORG 
  DEPTH LIMIT LIMIT    SW    SW    SW   DIST   DENS                          C  
   cm   cm3/cm3    cm3/cm3    cm3/cm3         g/cm3         ugN/g  ugN/g     %  
------------------------------------------------------------------------------- 
  0-  5 0.331 0.542 0.585 0.211 0.394   1.00   1.11   6.50   5.00   1.50   2.74 
  5- 15 0.331 0.542 0.585 0.211 0.394   1.00   1.11   6.50   5.00   1.50   2.74 
 15- 30 0.331 0.542 0.585 0.211 0.394   1.00   1.11   6.50   5.00   1.50   2.74 
 30- 45 0.290 0.438 0.491 0.148 0.334   0.43   1.26   6.50   4.60   1.50   1.07 
 45- 60 0.292 0.431 0.480 0.138 0.375   0.39   1.29   6.27   2.45   1.50   0.90 
 60- 90 0.293 0.419 0.466 0.126 0.419   0.32   1.34   6.00   0.00   1.50   0.64 
 90-108 0.286 0.408 0.460 0.122 0.408   0.23   1.36   6.00   0.00   1.50   0.35 
108-125 0.276 0.395 0.456 0.119 0.395   0.12   1.38   6.00   0.00   1.50   0.14 
                                                                                
TOT-125  37.3  55.9  62.1  18.6  49.1  <--cm   -  kg/ha-->   30.1   23.9 166127 
SOIL ALBEDO    : 0.09      EVAPORATION LIMIT : 6.00         MIN. FACTOR  : 1.00 
RUNOFF CURVE # :10.00      DRAINAGE RATE     : 0.40         FERT. FACTOR : 1.00 
                                                                                
 SOYBEAN    CULTIVAR :UY0141-GM 4 UY            ECOTYPE :SB0401                 
 CSDVAR :13.39  PPSEN  : 0.29  EMG-FLW:21.50  FLW-FSD:18.00  FSD-PHM : 32.00    
 WTPSD  :0.190  SDPDVR : 2.20  SDFDUR :23.00  PODDUR :10.00  XFRUIT  :  1.00    
                                                                                
                                                                                
                                                                                
                                                                                
*SIMULATED CROP AND SOIL STATUS AT MAIN DEVELOPMENT STAGES

 RUN NO.     5     UYSB                    

        CROP GROWTH   BIOMASS         LEAF   CROP N     STRESS  
   DATE  AGE STAGE      kg/ha    LAI   NUM  kg/ha  %   H2O    N 
 ------  --- ---------- -----  -----  ----  ---  ---  ----  ----
 20 AUG    0 Start Sim      0   0.00   0.0    0  0.0  0.00  0.00
 23 AUG    0 Sowing         0   0.00   0.0    0  0.0  0.00  0.00
  6 SEP   14 Emergence      4   0.01   0.0    0  5.2  0.00  0.00
  6 SEP   14 End Juven.     4   0.01   0.0    0  5.2  0.00  0.00
 26 SEP   34 Unifoliate     9   0.01   1.1    0  4.9  0.00  0.00
 26 SEP   34 Flower Ind     9   0.01   1.1    0  4.9  0.00  0.00
  7 NOV   76 First Flwr   563   0.69   7.5   24  4.3  0.00  0.00
 20 NOV   89 First Pod   1537   1.63  10.0   62  4.0  0.00  0.00
 11 DEC  110 First Seed  4409   2.25  14.3  129  2.9  0.00  0.07
 24 DEC  123 End Leaf    5709   2.15  16.7  168  2.9  0.00  0.00
 28 DEC  127 End Msnode  5944   2.09  17.5  176  3.0  0.00  0.00
 30 DEC  129 End Pod     6134   2.06  17.5  182  3.0  0.00  0.00
 28 JAN  158 Phys. Mat   7541   1.50  17.5  246  3.3  0.13  0.00
  9 FEB  170 Harv. Mat   6158   0.10  17.5  218  3.5  0.17  0.00
  9 FEB  170 Harvest     6158   0.10  17.5  218  3.5  0.00  0.00


*MAIN GROWTH AND DEVELOPMENT VARIABLES

@     VARIABLE                          SIMULATED     MEASURED
      --------                          ---------     --------
      Anthesis day (dap)                       76          -99
      First pod day (dap)                      89          -99
      First seed day (dap)                    110          -99
      Physiological maturity day (dap)        158          -99
      Yield at harvest maturity (kg [dm]/    2882          -99
      Pod/Ear/Panicle weight at maturity     4598          -99
      Number at maturity (no/m2)             2110          -99
      Unit wt at maturity (g [dm]/unit)    0.1366          -99
      Number at maturity (no/unit)           2.20          -99
      Tops weight at maturity (kg [dm]/ha    6158          -99
      By-product produced (stalk) at matu    3280          -99
      Leaf area index, maximum               2.25          -99
      Harvest index at maturity             0.468          -99
      Threshing % at maturity               62.69          -99
      Grain N at maturity (kg/ha)             178          -99
      Tops N at maturity (kg/ha)              218          -99
      Stem N at maturity (kg/ha)               12          -99
      Grain N at maturity (%)                6.19          -99
      Tops weight at anthesis (kg [dm]/ha     563          -99
      Tops N at anthesis (kg/ha)               24          -99
      Leaf number per stem at maturity      17.51          -99
      Grain oil at maturity (%)             20.50          -99
      Canopy height (m)                      0.81          -99
      Harvest maturity day (dap)              170          -99


*ENVIRONMENTAL AND STRESS FACTORS

 |-----Development Phase------|-------------Environment--------------|---------Stress----------|
                              |--------Average-------|---Cumulative--|  (0=Min, 1=Max Stress)  |
                         Time  Temp  Temp Solar Photop         Evapo |----Water---|--Nitrogen--|
                         Span   Max   Min   Rad  [day]   Rain  Trans  Photo         Photo
                         days    øC    øC MJ/m2     hr     mm     mm  synth Growth  synth Growth
------------------------------------------------------------------------------------------------
 Emergence -First Flower   62  22.0   9.8  19.3  12.50  187.0  126.7  0.000  0.000  0.000  0.000
 First Flower-First Seed   34  26.2  14.1  22.8  13.79  221.6  164.9  0.000  0.000  0.000  0.042
 First Seed - Phys. Mat.   48  27.7  15.6  24.3  13.95  122.9  233.5  0.042  0.081  0.070  0.000
 Emergence  - Phys. Mat.  144  24.9  12.8  21.8  13.29  531.5  525.0  0.014  0.027  0.005  0.010

                   Soybean YIELD :     2882 kg/ha    [Dry weight] 

************************************************************************************************
