*SOIL-PLANT-ATMOSPHERE MODULE OUTPUT FILE

*DSSAT Cropping System Model Ver. 4.0.2.000               Aug 11, 2016; 20:13:27

*RUN   1        : UYMZ                    
 MODEL          : MZCER040 - Maize           
 EXPERIMENT     : UYMZ0148 MZ    late to create DSS                             
 TREATMENT  1   : UYMZ                    

@YEAR DOY   DAS   SRAA   TMXA   TMNA   EOAA   ETAA   EPAA   ESAA   EFAD   ETAC   EPAC   ESAC   EFAC
 1990 220     0  12.90  25.00  12.80  3.127  2.370  0.000  2.370  0.000    2.4    0.0    2.4    0.0
 1990 221     1  14.70  20.50  10.30  3.295  1.600  0.000  1.600  0.000    4.0    0.0    4.0    0.0
 1990 222     2  15.10  22.30   8.90  3.423  1.489  0.000  1.489  0.000    5.5    0.0    5.5    0.0
 1990 223     3  15.40  28.00  11.90  3.842  3.842  0.000  3.842  0.000    9.3    0.0    9.3    0.0
 1990 224     4  15.30  28.40  12.10  3.842  3.168  0.000  3.168  0.000   12.5    0.0   12.5    0.0
 1990 225     5  14.50  28.00  12.80  3.644  2.632  0.000  2.632  0.000   15.1    0.0   15.1    0.0
 1990 226     6   5.20  25.80  14.90  1.294  1.294  0.000  1.294  0.000   16.4    0.0   16.4    0.0
 1990 227     7   7.50  15.80  10.50  1.580  1.580  0.000  1.580  0.000   18.0    0.0   18.0    0.0
 1990 228     8  14.80  18.90   8.50  3.195  3.195  0.000  3.195  0.000   21.2    0.0   21.2    0.0
 1990 229     9  16.80  21.40   7.70  3.724  2.725  0.000  2.725  0.000   23.9    0.0   23.9    0.0
 1990 230    10  16.20  20.80   6.00  3.508  2.308  0.000  2.308  0.000   26.2    0.0   26.2    0.0
 1990 231    11  12.80  20.80  10.40  2.883  1.364  0.000  1.364  0.000   27.6    0.0   27.6    0.0
 1990 232    12  17.30  21.00  10.30  3.903  1.073  0.000  1.073  0.000   28.6    0.0   28.6    0.0
 1990 233    13  14.80  20.90   6.70  3.229  0.919  0.005  0.914  0.000   29.6    0.0   29.6    0.0
 1990 234    14  13.00  18.40   8.30  2.781  0.817  0.007  0.810  0.000   30.4    0.0   30.4    0.0
 1990 235    15  17.00  15.60   4.40  3.364  0.746  0.011  0.735  0.000   31.1    0.0   31.1    0.0
 1990 236    16  11.20  18.10   3.70  2.284  0.686  0.008  0.677  0.000   31.8    0.0   31.8    0.0
 1990 237    17  13.00  24.60   9.60  3.052  0.644  0.012  0.632  0.000   32.5    0.0   32.4    0.0
 1990 238    18  16.40  25.50  11.70  3.961  0.617  0.023  0.594  0.000   33.1    0.1   33.0    0.0
 1990 239    19   6.80  17.60   5.50  1.400  1.400  0.011  1.388  0.000   34.5    0.1   34.4    0.0
 1990 240    20  18.80   9.70   2.00  3.300  3.300  0.029  3.271  0.000   37.8    0.1   37.7    0.0
 1990 241    21  17.80  14.60  -1.20  3.271  3.064  0.024  3.040  0.000   40.8    0.1   40.7    0.0
 1990 242    22  16.80  21.80   2.90  3.583  3.216  0.013  3.203  0.000   44.0    0.1   43.9    0.0
 1990 243    23   5.50  11.80   5.50  1.038  1.038  0.005  1.034  0.000   45.1    0.1   44.9    0.0
 1990 244    24  10.70  10.20   0.80  1.870  1.870  0.009  1.862  0.000   47.0    0.2   46.8    0.0
 1990 245    25  17.70  11.60  -2.30  3.059  1.487  0.010  1.477  0.000   48.4    0.2   48.3    0.0
 1990 246    26  19.80  16.80   2.50  3.916  1.128  0.004  1.124  0.000   49.6    0.2   49.4    0.0
 1990 247    27   5.60  16.40   7.10  1.152  0.947  0.002  0.945  0.000   50.5    0.2   50.3    0.0
 1990 248    28   6.00  18.60  13.40  1.347  0.834  0.003  0.831  0.000   51.4    0.2   51.2    0.0
 1990 249    29   5.70  15.40  13.40  1.225  0.810  0.010  0.800  0.000   52.2    0.2   52.0    0.0
 1990 250    30   5.80  15.90  12.80  1.247  0.920  0.016  0.904  0.000   53.1    0.2   52.9    0.0
 1990 251    31   5.80  14.30  10.30  1.190  1.190  0.021  1.169  0.000   54.3    0.2   54.1    0.0
 1990 252    32  19.70  23.50   7.80  4.479  4.479  0.096  4.383  0.000   58.8    0.3   58.4    0.0
 1990 253    33  15.20  27.50  11.60  3.745  2.468  0.105  2.363  0.000   61.2    0.4   60.8    0.0
 1990 254    34   9.60  23.10  10.70  2.220  2.220  0.089  2.131  0.000   63.4    0.5   62.9    0.0
 1990 255    35  17.10  13.80   5.20  3.297  3.297  0.161  3.136  0.000   66.7    0.7   66.1    0.0
 1990 256    36  18.80  11.80   2.70  3.422  2.415  0.173  2.242  0.000   69.2    0.8   68.3    0.0
 1990 257    37  20.40  14.20   0.50  3.771  2.476  0.174  2.302  0.000   71.6    1.0   70.6    0.0
 1990 258    38  21.40  18.40   3.40  4.350  1.510  0.147  1.363  0.000   73.1    1.2   72.0    0.0
 1990 259    39  17.80  21.60   7.90  3.942  1.215  0.142  1.072  0.000   74.4    1.3   73.0    0.0
 1990 260    40  10.60  17.70  10.60  2.279  1.018  0.104  0.914  0.000   75.4    1.4   74.0    0.0
 1990 261    41   9.30  17.90  11.00  2.010  2.010  0.108  1.902  0.000   77.4    1.5   75.9    0.0
 1990 262    42  13.80  17.70  10.00  2.943  2.943  0.184  2.759  0.000   80.3    1.7   78.6    0.0
 1990 263    43   6.40  17.90  13.30  1.408  1.408  0.100  1.308  0.000   81.7    1.8   79.9    0.0
 1990 264    44   6.40  20.50  15.80  1.486  0.952  0.120  0.832  0.000   82.7    1.9   80.8    0.0
 1990 265    45  20.10  18.60   9.20  4.287  3.199  0.409  2.790  0.000   85.9    2.3   83.5    0.0
 1990 266    46  18.60  13.50   5.40  3.547  1.799  0.376  1.424  0.000   87.7    2.7   85.0    0.0
 1990 267    47  22.30  15.00   3.20  4.253  1.564  0.463  1.101  0.000   89.2    3.2   86.1    0.0
 1990 268    48  23.20  16.30   3.10  4.511  1.403  0.472  0.931  0.000   90.7    3.6   87.0    0.0
 1990 269    49  23.40  20.50   5.10  4.930  1.319  0.498  0.821  0.000   92.0    4.1   87.8    0.0
 1990 270    50  21.30  24.00   8.90  4.854  1.284  0.541  0.743  0.000   93.3    4.7   88.6    0.0
 1990 271    51   6.80  21.70  12.20  1.544  0.884  0.200  0.684  0.000   94.1    4.9   89.3    0.0
 1990 272    52  19.30  22.00  11.30  4.353  1.278  0.641  0.637  0.000   95.4    5.5   89.9    0.0
 1990 273    53  19.30  25.20   8.90  4.429  1.335  0.737  0.599  0.000   96.8    6.3   90.5    0.0
 1990 274    54  21.70  28.10  12.90  5.312  1.565  0.998  0.566  0.000   98.3    7.3   91.1    0.0
 1990 275    55  24.20  24.00  11.90  5.566  1.756  1.217  0.539  0.000  100.1    8.5   91.6    0.0
 1990 276    56  21.80  26.60  13.30  5.214  1.788  1.273  0.515  0.000  101.9    9.8   92.1    0.0
 1990 277    57  17.90  30.10  17.50  4.582  1.756  1.262  0.494  0.000  103.6   11.0   92.6    0.0
 1990 278    58   7.10  19.10  17.30  1.581  0.986  0.511  0.475  0.000  104.6   11.5   93.1    0.0
 1990 279    59   9.40  22.70  17.20  2.178  2.178  0.765  1.413  0.000  106.8   12.3   94.5    0.0
 1990 280    60   7.20  21.60  17.70  1.644  1.644  0.635  1.009  0.000  108.4   12.9   95.5    0.0
 1990 281    61  11.50  20.40  13.70  2.491  2.491  1.034  1.457  0.000  110.9   14.0   97.0    0.0
 1990 282    62  23.40  22.30   9.50  4.995  4.995  2.169  2.826  0.000  115.9   16.1   99.8    0.0
 1990 283    63  21.00  22.30  11.30  4.538  4.235  2.065  2.171  0.000  120.1   18.2  102.0    0.0
 1990 284    64   9.00  22.10  14.50  1.986  1.986  0.950  1.036  0.000  122.1   19.1  103.0    0.0
 1990 285    65  25.50  19.40  11.30  5.266  5.266  2.662  2.604  0.000  127.4   21.8  105.6    0.0
 1990 286    66  26.10  21.60   7.60  5.356  5.356  2.803  2.554  0.000  132.8   24.6  108.1    0.0
 1990 287    67  24.80  22.60  11.50  5.320  4.678  2.872  1.806  0.000  137.4   27.5  110.0    0.0
 1990 288    68  25.50  20.10   8.90  5.155  5.155  2.921  2.234  0.000  142.6   30.4  112.2    0.0
 1990 289    69  26.40  20.50   5.00  5.165  4.562  3.019  1.543  0.000  147.1   33.4  113.7    0.0
 1990 290    70  15.20  21.40   8.90  3.113  3.007  1.855  1.152  0.000  150.2   35.3  114.9    0.0
 1990 291    71  24.50  24.40  14.30  5.440  4.302  3.341  0.961  0.000  154.5   38.6  115.8    0.0
 1990 292    72  17.30  24.00  15.30  3.838  3.747  2.464  1.282  0.000  158.2   41.1  117.1    0.0
 1990 293    73  16.40  23.70  15.70  3.622  3.622  2.422  1.200  0.000  161.8   43.5  118.3    0.0
 1990 294    74  22.20  24.00  14.20  4.844  4.844  3.358  1.486  0.000  166.7   46.9  119.8    0.0
 1990 295    75  27.10  24.80  13.10  5.899  5.899  4.217  1.682  0.000  172.6   51.1  121.5    0.0
 1990 296    76  21.10  25.60  13.10  4.624  4.332  3.397  0.935  0.000  176.9   54.5  122.4    0.0
 1990 297    77  20.80  22.20  13.80  4.385  4.385  3.304  1.080  0.000  181.3   57.8  123.5    0.0
 1990 298    78  14.30  24.70  11.80  3.052  3.052  2.347  0.705  0.000  184.3   60.1  124.2    0.0
 1990 299    79  25.10  27.10  16.30  5.701  5.701  4.469  1.232  0.000  190.0   64.6  125.4    0.0
 1990 300    80  19.60  28.30  17.00  4.526  4.526  3.632  0.894  0.000  194.6   68.2  126.3    0.0
 1990 301    81   8.80  23.80  18.50  1.946  1.946  1.597  0.349  0.000  196.5   69.8  126.7    0.0
 1990 302    82  12.20  27.40  20.40  2.849  2.849  2.370  0.479  0.000  199.4   72.2  127.2    0.0
 1990 303    83  26.40  28.80  17.90  6.134  6.134  5.189  0.945  0.000  205.5   77.4  128.1    0.0
 1990 304    84  26.50  23.20  15.80  5.661  5.661  4.873  0.789  0.000  211.2   82.3  128.9    0.0
 1990 305    85  23.10  24.10  16.70  5.018  5.018  4.369  0.650  0.000  216.2   86.6  129.6    0.0
 1990 306    86  20.10  27.00  14.30  4.428  4.428  3.899  0.530  0.000  220.6   90.5  130.1    0.0
 1990 307    87  11.80  28.10  20.80  2.763  2.763  2.457  0.305  0.000  223.4   93.0  130.4    0.0
 1990 308    88  21.00  22.20  10.80  4.229  4.229  3.789  0.440  0.000  227.6   96.8  130.8    0.0
 1990 309    89  28.80  19.00   6.40  5.338  5.338  4.808  0.530  0.000  232.9  101.6  131.4    0.0
 1990 310    90  17.40  21.20   9.80  3.425  3.425  3.092  0.334  0.000  236.4  104.7  131.7    0.0
 1990 311    91  23.40  23.50  13.50  4.893  4.893  4.433  0.460  0.000  241.3  109.1  132.2    0.0
 1990 312    92   8.40  18.40  11.30  1.613  1.613  1.469  0.144  0.000  242.9  110.6  132.3    0.0
 1990 313    93  16.20  22.30  15.10  3.379  3.379  3.085  0.294  0.000  246.2  113.7  132.6    0.0
 1990 314    94  21.20  24.80  13.70  4.503  4.503  4.144  0.359  0.000  250.7  117.8  132.9    0.0
 1990 315    95  23.60  27.00  15.30  5.208  5.208  4.822  0.386  0.000  256.0  122.6  133.3    0.0
 1990 316    96  12.20  24.60  14.20  2.592  2.592  2.411  0.181  0.000  258.5  125.0  133.5    0.0
 1990 317    97  26.70  34.90  18.50  6.578  6.578  6.130  0.448  0.000  265.1  131.2  134.0    0.0
 1990 318    98  15.90  33.00  20.80  3.900  3.900  3.648  0.252  0.000  269.0  134.8  134.2    0.0
 1990 319    99   8.60  23.20  17.30  1.840  1.840  1.724  0.116  0.000  270.9  136.5  134.3    0.0
 1990 320   100  17.60  22.10  12.20  3.562  3.562  3.335  0.227  0.000  274.4  139.9  134.6    0.0
 1990 321   101  28.70  26.10   9.30  5.962  5.962  5.580  0.382  0.000  280.4  145.4  134.9    0.0
 1990 322   102  27.80  29.70  16.50  6.377  6.377  5.966  0.412  0.000  286.8  151.4  135.4    0.0
 1990 323   103  27.10  33.40  21.80  6.721  6.721  6.291  0.430  0.000  293.5  157.7  135.8    0.0
 1990 324   104  12.20  28.00  21.10  2.841  2.841  2.663  0.178  0.000  296.3  160.4  136.0    0.0
 1990 325   105  30.70  28.70  18.80  7.083  7.083  6.639  0.444  0.000  303.4  167.0  136.4    0.0
 1990 326   106  28.10  28.00  15.30  6.263  6.263  5.872  0.391  0.000  309.7  172.9  136.8    0.0
 1990 327   107  29.80  28.20  14.20  6.602  6.602  6.189  0.413  0.000  316.3  179.1  137.2    0.0
 1990 328   108  25.60  28.70  16.80  5.819  5.819  5.453  0.366  0.000  322.1  184.5  137.6    0.0
 1990 329   109  20.10  29.20  18.20  4.643  4.643  4.350  0.293  0.000  326.7  188.9  137.9    0.0
 1990 330   110  22.90  24.90  15.80  4.943  4.943  4.618  0.325  0.000  331.7  193.5  138.2    0.0
 1990 331   111  30.40  21.20  10.00  5.972  5.972  5.562  0.410  0.000  337.7  199.1  138.6    0.0
 1990 332   112  30.90  24.60   9.00  6.290  6.290  5.844  0.446  0.000  343.9  204.9  139.0    0.0
 1990 333   113  31.00  27.10  12.20  6.682  6.682  6.194  0.488  0.000  350.6  211.1  139.5    0.0
 1990 334   114  14.90  26.80  14.90  3.270  3.270  3.025  0.246  0.000  353.9  214.1  139.8    0.0
 1990 335   115  23.40  26.40  14.70  5.105  5.105  4.712  0.394  0.000  359.0  218.8  140.2    0.0
 1990 336   116   9.00  23.50  14.10  1.887  1.887  1.738  0.149  0.000  360.9  220.6  140.3    0.0
 1990 337   117  30.10  22.90  11.40  6.127  6.127  5.633  0.494  0.000  367.0  226.2  140.8    0.0
 1990 338   118  28.70  27.90  10.60  6.175  6.175  5.666  0.509  0.000  373.2  231.9  141.3    0.0
 1990 339   119  16.80  32.30  20.30  4.087  4.087  3.744  0.343  0.000  377.3  235.6  141.7    0.0
 1990 340   120  16.80  25.60  17.50  3.716  3.716  3.398  0.318  0.000  381.0  239.0  142.0    0.0
 1990 341   121  26.90  25.20  16.00  5.853  5.853  5.345  0.508  0.000  386.8  244.3  142.5    0.0
 1990 342   122  30.30  25.00  12.00  6.370  6.370  5.809  0.561  0.000  393.2  250.2  143.1    0.0
 1990 343   123   9.00  19.70  14.20  1.803  1.803  1.642  0.161  0.000  395.0  251.8  143.2    0.0
 1990 344   124   9.10  19.50  15.90  1.846  1.846  1.677  0.169  0.000  396.9  253.5  143.4    0.0
 1990 345   125  24.70  25.00  14.70  5.312  5.312  4.814  0.498  0.000  402.2  258.3  143.9    0.0
 1990 346   126  14.70  22.00  10.50  2.942  2.942  2.659  0.283  0.000  405.1  261.0  144.2    0.0
 1990 347   127  19.00  24.00  14.30  4.026  4.026  3.629  0.397  0.000  409.1  264.6  144.6    0.0
 1990 348   128  29.20  21.90  10.30  5.830  5.830  5.239  0.591  0.000  415.0  269.8  145.2    0.0
 1990 349   129  31.80  27.30  10.90  6.829  6.829  6.117  0.713  0.000  421.8  275.9  145.9    0.0
 1990 350   130  28.70  30.20  13.70  6.521  6.521  5.821  0.700  0.000  428.3  281.8  146.6    0.0
 1990 351   131  14.40  30.10  18.00  3.376  3.376  3.003  0.373  0.000  431.7  284.8  146.9    0.0
 1990 352   132  27.40  25.60  17.30  6.075  6.075  5.383  0.692  0.000  437.8  290.1  147.6    0.0
 1990 353   133  31.40  25.60  14.40  6.807  6.807  6.007  0.800  0.000  444.6  296.1  148.4    0.0
 1990 354   134  31.60  27.10  14.00  6.956  6.956  6.110  0.846  0.000  451.5  302.3  149.3    0.0
 1990 355   135  25.60  29.80  15.90  5.902  5.902  5.159  0.743  0.000  457.4  307.4  150.0    0.0
 1990 356   136  10.00  25.70  19.00  2.254  2.254  1.960  0.294  0.000  459.7  309.4  150.3    0.0
 1990 357   137  19.50  28.40  17.80  4.495  4.495  3.887  0.608  0.000  464.2  313.3  150.9    0.0
 1990 358   138  13.10  24.40  15.50  2.833  2.833  2.435  0.398  0.000  467.0  315.7  151.3    0.0
 1990 359   139  29.40  25.70  12.70  6.320  6.320  5.397  0.923  0.000  473.3  321.1  152.2    0.0
 1990 360   140  31.40  31.30  15.30  7.356  7.356  6.238  1.119  0.000  480.7  327.3  153.4    0.0
 1990 361   141  31.40  31.50  18.00  7.527  7.527  6.335  1.191  0.000  488.2  333.7  154.6    0.0
 1990 362   142  31.40  21.00  13.30  6.416  6.416  5.357  1.059  0.000  494.6  339.0  155.6    0.0
 1990 363   143  29.60  23.30   9.40  6.031  6.031  4.991  1.040  0.000  500.7  344.0  156.7    0.0
 1990 364   144  30.80  27.20  11.40  6.704  6.329  5.498  0.832  0.000  507.0  349.5  157.5    0.0
 1990 365   145  31.50  29.40  14.80  7.233  7.233  5.875  1.358  0.000  514.2  355.4  158.8    0.0
 1991 001   146  24.30  31.60  17.10  5.825  5.825  4.684  1.141  0.000  520.1  360.1  160.0    0.0
 1991 002   147  24.10  29.20  20.30  5.767  5.767  4.588  1.179  0.000  525.8  364.7  161.2    0.0
 1991 003   148  26.70  29.10  17.40  6.255  6.177  4.919  1.258  0.000  532.0  369.6  162.4    0.0
 1991 004   149  31.30  28.60  13.40  7.081  6.521  5.502  1.019  0.000  538.5  375.1  163.4    0.0
 1991 005   150  31.30  28.20  13.80  7.081  6.310  5.429  0.880  0.000  544.8  380.5  164.3    0.0
 1991 006   151  31.30  30.20  13.00  7.213  6.240  5.454  0.786  0.000  551.1  386.0  165.1    0.0
 1991 007   152  29.60  32.40  17.10  7.219  6.095  5.378  0.717  0.000  557.2  391.3  165.8    0.0
 1991 008   153  29.90  34.30  19.30  7.572  7.572  5.553  2.019  0.000  564.7  396.9  167.8    0.0
 1991 009   154   9.90  24.30  21.30  2.284  2.284  1.647  0.637  0.000  567.0  398.5  168.5    0.0
 1991 010   155  27.90  30.80  19.20  6.826  6.826  4.836  1.990  0.000  573.9  403.4  170.5    0.0
 1991 011   156  25.10  27.80  15.90  5.805  5.805  4.036  1.770  0.000  579.7  407.4  172.2    0.0
 1991 012   157  29.50  26.40  13.00  6.574  6.574  4.482  2.092  0.000  586.2  411.9  174.3    0.0
 1991 013   158  19.30  27.00  12.90  4.337  3.820  2.897  0.923  0.000  590.1  414.8  175.3    0.0
 1991 014   159  30.50  28.00  14.60  7.043  7.043  4.605  2.439  0.000  597.1  419.4  177.7    0.0
 1991 015   160  29.90  31.70  14.10  7.190  6.135  4.597  1.538  0.000  603.2  424.0  179.2    0.0
 1991 016   161  22.10  22.50  13.00  4.735  4.107  2.957  1.150  0.000  607.3  427.0  180.4    0.0
 1991 017   162  30.40  24.40   7.10  6.361  6.361  3.876  2.485  0.000  613.7  430.8  182.9    0.0
 1991 018   163  30.70  27.70  11.00  6.929  6.929  4.117  2.811  0.000  620.6  434.9  185.7    0.0
 1991 019   164  27.80  29.60  11.80  6.472  5.664  3.748  1.916  0.000  626.3  438.7  187.6    0.0
 1991 020   165  22.10  32.20  11.60  5.305  5.305  2.990  2.315  0.000  631.6  441.7  189.9    0.0
 1991 021   166  10.90  24.10  18.70  2.517  2.517  1.419  1.098  0.000  634.1  443.1  191.0    0.0
 1991 022   167  30.70  28.90  15.50  7.311  7.311  4.121  3.190  0.000  641.4  447.2  194.2    0.0

*DSSAT Cropping System Model Ver. 4.0.2.000               Aug 11, 2016; 20:13:27

*RUN   2        : UYMZ                    
 MODEL          : MZCER040 - Maize           
 EXPERIMENT     : UYMZ0148 MZ    late to create DSS                             
 TREATMENT  1   : UYMZ                    

@YEAR DOY   DAS   SRAA   TMXA   TMNA   EOAA   ETAA   EPAA   ESAA   EFAD   ETAC   EPAC   ESAC   EFAC
 1991 220     0  11.00  16.70   7.50  2.281  2.281  0.000  2.281  0.000    2.3    0.0    2.3    0.0
 1991 221     1   5.10  15.70  10.40  1.072  1.072  0.000  1.072  0.000    3.4    0.0    3.4    0.0
 1991 222     2   4.80  11.90   8.10  0.933  0.735  0.000  0.735  0.000    4.1    0.0    4.1    0.0
 1991 223     3   7.80  13.10   5.60  1.505  1.505  0.000  1.505  0.000    5.6    0.0    5.6    0.0
 1991 224     4  12.50  15.80   1.50  2.411  2.411  0.000  2.411  0.000    8.0    0.0    8.0    0.0
 1991 225     5  11.60  18.50   7.30  2.463  2.311  0.000  2.311  0.000   10.3    0.0   10.3    0.0
 1991 226     6  15.20  25.70  10.80  3.656  3.280  0.000  3.280  0.000   13.6    0.0   13.6    0.0
 1991 227     7  10.70  25.30  15.40  2.658  1.448  0.000  1.448  0.000   15.0    0.0   15.0    0.0
 1991 228     8  12.60  27.30  14.40  3.180  1.111  0.000  1.111  0.000   16.2    0.0   16.2    0.0
 1991 229     9  16.10  24.70  11.80  3.857  0.937  0.000  0.937  0.000   17.1    0.0   17.1    0.0
 1991 230    10   9.30  23.80  13.60  2.236  0.826  0.000  0.826  0.000   17.9    0.0   17.9    0.0
 1991 231    11  12.70  26.00  10.90  3.068  0.753  0.006  0.747  0.000   18.7    0.0   18.7    0.0
 1991 232    12   9.30  26.00  11.80  2.262  0.695  0.008  0.687  0.000   19.4    0.0   19.4    0.0
 1991 233    13  14.70  26.00  11.60  3.569  0.660  0.020  0.639  0.000   20.0    0.0   20.0    0.0
 1991 234    14  13.80  26.40  14.60  3.447  0.628  0.027  0.600  0.000   20.7    0.1   20.6    0.0
 1991 235    15  16.70  21.60  14.50  3.930  0.610  0.042  0.568  0.000   21.3    0.1   21.2    0.0
 1991 236    16  16.20  20.70   9.90  3.621  0.588  0.048  0.540  0.000   21.9    0.2   21.7    0.0
 1991 237    17  14.10  24.70  11.10  3.349  0.579  0.063  0.516  0.000   22.4    0.2   22.2    0.0
 1991 238    18   5.40  16.90  11.90  1.165  0.527  0.032  0.495  0.000   23.0    0.2   22.7    0.0
 1991 239    19   5.30  16.20  10.20  1.114  1.114  0.036  1.078  0.000   24.1    0.3   23.8    0.0
 1991 240    20  10.80  21.40  12.10  2.474  0.604  0.091  0.512  0.000   24.7    0.4   24.3    0.0
 1991 241    21  10.70  22.80  14.40  2.540  0.607  0.116  0.492  0.000   25.3    0.5   24.8    0.0
 1991 242    22   7.30  24.20  16.00  1.783  0.575  0.101  0.473  0.000   25.9    0.6   25.3    0.0
 1991 243    23   5.50  16.80  11.00  1.168  1.168  0.082  1.085  0.000   27.0    0.7   26.4    0.0
 1991 244    24   9.40  16.10   8.10  1.921  1.921  0.149  1.773  0.000   28.9    0.8   28.1    0.0
 1991 245    25   5.50  17.90  11.20  1.185  1.185  0.098  1.088  0.000   30.1    0.9   29.2    0.0
 1991 246    26  10.50  22.80  14.00  2.468  1.641  0.223  1.418  0.000   31.8    1.1   30.6    0.0
 1991 247    27  18.10  25.80  13.20  4.376  2.930  0.457  2.473  0.000   34.7    1.6   33.1    0.0
 1991 248    28  18.40  27.20  13.90  4.536  1.943  0.553  1.390  0.000   36.6    2.2   34.5    0.0
 1991 249    29   5.70  22.50  16.00  1.346  1.277  0.192  1.085  0.000   37.9    2.3   35.6    0.0
 1991 250    30   5.80  17.20  12.80  1.242  1.242  0.200  1.042  0.000   39.2    2.5   36.6    0.0
 1991 251    31   6.40  17.10  10.50  1.337  1.043  0.231  0.812  0.000   40.2    2.8   37.4    0.0
 1991 252    32  15.60  20.00   8.40  3.323  3.323  0.607  2.715  0.000   43.5    3.4   40.1    0.0
 1991 253    33  17.50  22.00  10.20  3.881  2.313  0.757  1.556  0.000   45.8    4.1   41.7    0.0
 1991 254    34  20.20  25.00  10.80  4.666  2.143  0.986  1.157  0.000   48.0    5.1   42.9    0.0
 1991 255    35  19.90  27.80  14.10  4.867  2.096  1.132  0.964  0.000   50.1    6.3   43.8    0.0
 1991 256    36  15.40  30.70  16.10  3.936  1.872  1.027  0.844  0.000   52.0    7.3   44.7    0.0
 1991 257    37   6.10  21.00   7.80  1.288  1.141  0.381  0.760  0.000   53.1    7.7   45.4    0.0
 1991 258    38   6.20  12.30   8.20  1.158  1.158  0.358  0.800  0.000   54.3    8.0   46.2    0.0
 1991 259    39  11.50  23.50  12.40  2.601  2.601  0.818  1.784  0.000   56.9    8.8   48.0    0.0
 1991 260    40   6.30  21.10  17.10  1.433  1.433  0.483  0.950  0.000   58.3    9.3   49.0    0.0
 1991 261    41  18.90  19.70  13.10  4.074  4.074  1.436  2.638  0.000   62.4   10.8   51.6    0.0
 1991 262    42  21.70  17.30   8.80  4.348  4.348  1.587  2.761  0.000   66.7   12.3   54.4    0.0
 1991 263    43  13.10  22.60   8.30  2.802  2.345  1.058  1.287  0.000   69.1   13.4   55.6    0.0
 1991 264    44  11.00  27.50  12.60  2.584  2.584  1.030  1.554  0.000   71.6   14.4   57.2    0.0
 1991 265    45  20.40  20.30  10.30  4.274  3.753  1.837  1.916  0.000   75.4   16.3   59.1    0.0
 1991 266    46  21.60  16.90   3.20  4.025  3.094  1.816  1.278  0.000   78.5   18.1   60.4    0.0
 1991 267    47  22.30  19.00   4.90  4.367  2.922  1.892  1.030  0.000   81.4   20.0   61.4    0.0
 1991 268    48  20.30  21.10   8.70  4.230  2.758  1.871  0.887  0.000   84.2   21.9   62.3    0.0
 1991 269    49  21.70  23.40   7.80  4.611  2.917  2.126  0.791  0.000   87.1   24.0   63.1    0.0
 1991 270    50  17.70  27.80  13.80  4.159  2.725  2.004  0.721  0.000   89.8   26.0   63.8    0.0
 1991 271    51  22.20  16.10   9.00  4.282  2.882  2.216  0.666  0.000   92.7   28.2   64.5    0.0
 1991 272    52  21.80  18.00   7.50  4.250  2.881  2.258  0.623  0.000   95.6   30.5   65.1    0.0
 1991 273    53  21.10  20.20   9.70  4.316  2.941  2.354  0.587  0.000   98.5   32.8   65.7    0.0
 1991 274    54  19.70  18.40   7.00  3.824  2.720  2.164  0.556  0.000  101.2   35.0   66.3    0.0
 1991 275    55  22.00  18.40   5.70  4.211  2.968  2.438  0.530  0.000  104.2   37.4   66.8    0.0
 1991 276    56  23.00  19.80   3.80  4.402  4.402  2.601  1.802  0.000  108.6   40.0   68.6    0.0
 1991 277    57  19.10  21.70   6.30  3.843  3.843  2.251  1.592  0.000  112.4   42.3   70.2    0.0
 1991 278    58   7.10  13.60  10.60  1.325  1.325  0.798  0.527  0.000  113.8   43.1   70.7    0.0
 1991 279    59  13.30  12.50   7.00  2.352  2.352  1.440  0.912  0.000  116.1   44.5   71.6    0.0
 1991 280    60  14.80  14.20   4.00  2.604  2.604  1.605  0.999  0.000  118.7   46.1   72.6    0.0
 1991 281    61  23.60  16.90   3.90  4.326  4.326  2.626  1.700  0.000  123.0   48.7   74.3    0.0
 1991 282    62  20.30  20.90   7.30  4.070  4.070  2.436  1.633  0.000  127.1   51.2   75.9    0.0
 1991 283    63  24.30  23.10   7.20  5.000  4.895  3.071  1.825  0.000  132.0   54.2   77.8    0.0
 1991 284    64  24.30  25.00   8.70  5.177  5.177  3.271  1.906  0.000  137.2   57.5   79.7    0.0
 1991 285    65  24.40  29.20  12.20  5.610  5.610  3.661  1.949  0.000  142.8   61.2   81.6    0.0
 1991 286    66  21.90  33.00  20.00  5.541  5.083  3.771  1.312  0.000  147.9   64.9   82.9    0.0
 1991 287    67  11.80  32.00  21.10  2.961  2.961  2.125  0.836  0.000  150.8   67.1   83.8    0.0
 1991 288    68   7.50  23.50  17.60  1.659  1.659  1.234  0.426  0.000  152.5   68.3   84.2    0.0
 1991 289    69   7.60  17.80  11.60  1.483  1.483  1.124  0.359  0.000  154.0   69.4   84.6    0.0
 1991 290    70  15.50  16.00   8.40  2.860  2.860  2.196  0.664  0.000  156.8   71.6   85.2    0.0
 1991 291    71  26.30  21.50   8.40  5.232  5.232  4.033  1.198  0.000  162.1   75.7   86.4    0.0
 1991 292    72  26.30  24.60  11.00  5.560  5.560  4.336  1.224  0.000  167.6   80.0   87.6    0.0
 1991 293    73  26.30  24.90  12.50  5.639  5.639  4.473  1.166  0.000  173.3   84.5   88.8    0.0
 1991 294    74  24.40  29.60  14.20  5.594  5.594  4.515  1.079  0.000  178.9   89.0   89.9    0.0
 1991 295    75  20.20  29.90  19.80  4.833  4.617  3.982  0.634  0.000  183.5   93.0   90.5    0.0
 1991 296    76   8.30  19.10  12.60  1.643  1.643  1.384  0.259  0.000  185.1   94.3   90.8    0.0
 1991 297    77   7.90  17.40  10.20  1.494  1.494  1.269  0.225  0.000  186.6   95.6   91.0    0.0
 1991 298    78   7.90  21.30  15.40  1.645  1.645  1.404  0.240  0.000  188.3   97.0   91.3    0.0
 1991 299    79  22.70  24.90  16.30  4.971  4.971  4.271  0.700  0.000  193.2  101.3   92.0    0.0
 1991 300    80  12.20  23.30  14.70  2.583  2.583  2.245  0.338  0.000  195.8  103.5   92.3    0.0
 1991 301    81   8.00  20.10  14.90  1.629  1.629  1.427  0.202  0.000  197.5  105.0   92.5    0.0
 1991 302    82   8.00  16.80  15.20  1.563  1.563  1.375  0.188  0.000  199.0  106.3   92.7    0.0
 1991 303    83   8.10  18.00  14.60  1.598  1.598  1.416  0.182  0.000  200.6  107.8   92.9    0.0
 1991 304    84   8.10  20.70  14.60  1.654  1.654  1.472  0.182  0.000  202.3  109.2   93.0    0.0
 1991 305    85  17.90  22.30  13.70  3.700  3.700  3.304  0.397  0.000  206.0  112.5   93.4    0.0
 1991 306    86  25.50  22.30  12.20  5.202  5.202  4.671  0.530  0.000  211.2  117.2   94.0    0.0
 1991 307    87  20.80  22.80  12.80  4.289  4.289  3.867  0.423  0.000  215.5  121.1   94.4    0.0
 1991 308    88  27.90  25.00  11.90  5.867  5.867  5.304  0.563  0.000  221.3  126.4   95.0    0.0
 1991 309    89  20.90  25.90  13.20  4.489  4.489  4.068  0.421  0.000  225.8  130.4   95.4    0.0
 1991 310    90  11.60  24.30  16.20  2.503  2.503  2.272  0.231  0.000  228.3  132.7   95.6    0.0
 1991 311    91  21.40  22.80  13.70  4.442  4.442  4.036  0.406  0.000  232.8  136.7   96.0    0.0
 1991 312    92  20.00  21.40  12.40  4.034  4.034  3.666  0.368  0.000  236.8  140.4   96.4    0.0
 1991 313    93  27.20  23.90   9.20  5.512  5.512  5.007  0.506  0.000  242.3  145.4   96.9    0.0
 1991 314    94  17.60  25.70  11.30  3.713  3.713  3.369  0.344  0.000  246.0  148.8   97.2    0.0
 1991 315    95  18.50  19.00  10.10  3.544  3.544  3.215  0.329  0.000  249.6  152.0   97.6    0.0
 1991 316    96  27.30  19.00   6.40  5.057  5.057  4.579  0.477  0.000  254.6  156.6   98.0    0.0
 1991 317    97  18.50  21.00   8.40  3.587  3.587  3.241  0.346  0.000  258.2  159.8   98.4    0.0
 1991 318    98   8.50  19.90  12.10  1.679  1.679  1.514  0.165  0.000  259.9  161.3   98.5    0.0
 1991 319    99  11.90  22.20  14.00  2.460  2.460  2.216  0.245  0.000  262.3  163.6   98.8    0.0
 1991 320   100  19.50  23.20  12.10  4.019  4.019  3.616  0.403  0.000  266.4  167.2   99.2    0.0
 1991 321   101  21.50  23.00  11.30  4.391  4.391  3.946  0.445  0.000  270.8  171.1   99.6    0.0
 1991 322   102  23.70  27.00  13.30  5.168  5.168  4.639  0.529  0.000  275.9  175.8  100.2    0.0
 1991 323   103  29.90  21.30  13.80  6.105  6.105  5.477  0.628  0.000  282.0  181.2  100.8    0.0
 1991 324   104  24.60  24.40  13.00  5.187  5.187  4.647  0.540  0.000  287.2  185.9  101.3    0.0
 1991 325   105  29.40  28.60  12.50  6.495  6.495  5.811  0.684  0.000  293.7  191.7  102.0    0.0
 1991 326   106  28.60  33.30  13.80  6.731  6.731  6.018  0.713  0.000  300.4  197.7  102.7    0.0
 1991 327   107  24.90  35.20  18.50  6.245  6.245  5.558  0.687  0.000  306.7  203.3  103.4    0.0
 1991 328   108   8.80  19.10  13.80  1.749  1.749  1.550  0.199  0.000  308.4  204.8  103.6    0.0
 1991 329   109   8.80  18.80  14.20  1.749  1.749  1.544  0.205  0.000  310.2  206.4  103.8    0.0
 1991 330   110  14.10  20.20  12.60  2.816  2.816  2.477  0.339  0.000  313.0  208.8  104.2    0.0
 1991 331   111  22.40  24.20  10.70  4.635  4.635  4.063  0.572  0.000  317.6  212.9  104.7    0.0
 1991 332   112  22.30  29.00  14.90  5.057  5.057  4.418  0.639  0.000  322.7  217.3  105.4    0.0
 1991 333   113  16.00  25.60  19.00  3.602  3.602  3.137  0.465  0.000  326.3  220.5  105.8    0.0
 1991 334   114  30.00  28.20  17.50  6.881  6.881  5.974  0.907  0.000  333.2  226.4  106.8    0.0
 1991 335   115  24.30  27.80  14.60  5.428  5.428  4.699  0.729  0.000  338.6  231.1  107.5    0.0
 1991 336   116  29.40  30.10  14.90  6.761  6.761  5.837  0.924  0.000  345.4  237.0  108.4    0.0
 1991 337   117  15.40  27.50  18.00  3.521  3.521  3.032  0.489  0.000  348.9  240.0  108.9    0.0
 1991 338   118  29.90  31.50  16.10  7.051  7.051  6.057  0.994  0.000  355.9  246.1  109.9    0.0
 1991 339   119  14.60  27.30  18.30  3.340  3.340  2.863  0.477  0.000  359.3  248.9  110.4    0.0
 1991 340   120  29.40  31.80  18.90  7.104  7.104  6.066  1.039  0.000  366.4  255.0  111.4    0.0
 1991 341   121  16.80  27.80  19.00  3.889  3.889  3.306  0.583  0.000  370.3  258.3  112.0    0.0
 1991 342   122  28.30  29.80  17.70  6.639  6.639  5.618  1.021  0.000  376.9  263.9  113.0    0.0
 1991 343   123   9.00  22.80  18.90  1.967  1.967  1.657  0.310  0.000  378.9  265.6  113.3    0.0
 1991 344   124  24.70  27.00  18.80  5.668  5.668  4.750  0.918  0.000  384.5  270.3  114.2    0.0
 1991 345   125  19.50  27.60  17.30  4.457  4.457  3.715  0.742  0.000  389.0  274.0  115.0    0.0
 1991 346   126   9.40  23.80  16.60  2.045  2.045  1.695  0.350  0.000  391.0  275.7  115.3    0.0
 1991 347   127  29.90  28.40  15.10  6.792  6.792  5.596  1.195  0.000  397.8  281.3  116.5    0.0
 1991 348   128   9.40  21.90  16.70  2.003  2.003  1.640  0.363  0.000  399.8  283.0  116.9    0.0
 1991 349   129   9.10  23.50  16.70  1.979  1.979  1.610  0.369  0.000  401.8  284.6  117.3    0.0
 1991 350   130  20.20  26.90  17.10  4.590  4.590  3.708  0.882  0.000  406.4  288.3  118.1    0.0
 1991 351   131  27.60  27.80  17.90  6.381  6.381  5.118  1.263  0.000  412.8  293.4  119.4    0.0
 1991 352   132  26.20  31.10  17.80  6.285  6.285  5.003  1.282  0.000  419.1  298.4  120.7    0.0
 1991 353   133  21.60  31.20  17.50  5.181  5.181  4.091  1.090  0.000  424.3  302.5  121.8    0.0
 1991 354   134  28.80  31.00  18.00  6.925  6.925  5.421  1.503  0.000  431.2  307.9  123.3    0.0
 1991 355   135  23.90  32.40  19.90  5.920  5.920  4.593  1.327  0.000  437.1  312.5  124.6    0.0
 1991 356   136  11.20  27.10  20.30  2.629  2.629  2.020  0.609  0.000  439.7  314.5  125.2    0.0
 1991 357   137  23.80  30.00  19.50  5.741  5.741  4.367  1.374  0.000  445.5  318.9  126.6    0.0
 1991 358   138  27.30  30.80  20.60  6.704  6.704  5.046  1.658  0.000  452.2  323.9  128.2    0.0
 1991 359   139  21.00  25.60  17.40  4.755  4.755  3.540  1.215  0.000  456.9  327.5  129.5    0.0
 1991 360   140  23.90  22.70  13.40  5.066  5.066  3.727  1.339  0.000  462.0  331.2  130.8    0.0
 1991 361   141  29.90  25.20  12.40  6.492  6.492  4.716  1.776  0.000  468.5  335.9  132.6    0.0
 1991 362   142  28.80  26.60  14.90  6.497  6.497  4.659  1.838  0.000  475.0  340.6  134.4    0.0
 1991 363   143  30.80  29.30  14.60  7.163  6.744  5.068  1.676  0.000  481.7  345.6  136.1    0.0
 1991 364   144  23.60  30.40  17.40  5.683  5.683  3.965  1.718  0.000  487.4  349.6  137.8    0.0
 1991 365   145  19.50  33.00  21.10  4.966  4.966  3.415  1.551  0.000  492.4  353.0  139.4    0.0
 1992 001   146  10.80  28.00  20.30  2.595  2.595  1.757  0.838  0.000  495.0  354.8  140.2    0.0
 1992 002   147  19.00  28.60  19.10  4.563  4.563  3.040  1.523  0.000  499.5  357.8  141.7    0.0
 1992 003   148  28.00  23.20  14.20  6.084  6.084  3.985  2.099  0.000  505.6  361.8  143.8    0.0
 1992 004   149  31.30  26.80  14.90  7.155  7.086  4.605  2.481  0.000  512.7  366.4  146.3    0.0
 1992 005   150  30.40  28.90  13.10  7.035  7.035  4.446  2.589  0.000  519.7  370.9  148.9    0.0
 1992 006   151  20.50  27.20  15.70  4.754  4.671  2.948  1.723  0.000  524.4  373.8  150.6    0.0
 1992 007   152  25.30  29.60  15.90  6.052  4.896  3.677  1.219  0.000  529.3  377.5  151.8    0.0
 1992 008   153  27.90  31.00  20.10  7.004  5.164  4.165  0.999  0.000  534.5  381.6  152.8    0.0
 1992 009   154  23.60  31.00  20.00  5.932  4.317  3.451  0.867  0.000  538.8  385.1  153.7    0.0
 1992 010   155  21.00  30.00  20.90  5.266  3.770  2.993  0.776  0.000  542.6  388.1  154.5    0.0
 1992 011   156  31.30  27.00  14.90  7.268  4.743  4.033  0.710  0.000  547.3  392.1  155.2    0.0
 1992 012   157  26.60  28.30  13.80  6.218  4.108  3.450  0.658  0.000  551.4  395.6  155.8    0.0
 1992 013   158  31.20  28.00  15.60  7.369  4.705  4.089  0.615  0.000  556.1  399.7  156.4    0.0
 1992 014   159  22.70  28.00  15.50  5.358  3.553  2.973  0.581  0.000  559.7  402.6  157.0    0.0

*DSSAT Cropping System Model Ver. 4.0.2.000               Aug 11, 2016; 20:13:27

*RUN   3        : UYMZ                    
 MODEL          : MZCER040 - Maize           
 EXPERIMENT     : UYMZ0148 MZ    late to create DSS                             
 TREATMENT  1   : UYMZ                    

@YEAR DOY   DAS   SRAA   TMXA   TMNA   EOAA   ETAA   EPAA   ESAA   EFAD   ETAC   EPAC   ESAC   EFAC
 1992 220     0   4.50  21.40   8.20  1.002  1.002  0.000  1.002  0.000    1.0    0.0    1.0    0.0
 1992 221     1  14.50  10.40   1.40  2.562  1.920  0.000  1.920  0.000    2.9    0.0    2.9    0.0
 1992 222     2  10.20  13.40  -0.60  1.852  1.852  0.000  1.852  0.000    4.8    0.0    4.8    0.0
 1992 223     3   9.40  15.40   7.80  1.919  1.919  0.000  1.919  0.000    6.7    0.0    6.7    0.0
 1992 224     4  15.10  14.90   3.90  2.943  2.943  0.000  2.943  0.000    9.6    0.0    9.6    0.0
 1992 225     5  14.50  15.90   6.10  2.932  2.215  0.000  2.215  0.000   11.9    0.0   11.9    0.0
 1992 226     6  15.60  18.00   2.80  3.150  2.585  0.000  2.585  0.000   14.4    0.0   14.4    0.0
 1992 227     7  14.70  18.40   3.00  2.992  1.404  0.000  1.404  0.000   15.8    0.0   15.8    0.0
 1992 228     8   9.50  19.20   5.70  2.007  1.092  0.000  1.092  0.000   16.9    0.0   16.9    0.0
 1992 229     9  15.30  22.20   8.70  3.458  0.925  0.000  0.925  0.000   17.9    0.0   17.9    0.0
 1992 230    10  12.30  23.20   9.70  2.841  0.818  0.000  0.818  0.000   18.7    0.0   18.7    0.0
 1992 231    11  14.00  20.80   9.20  3.120  0.741  0.000  0.741  0.000   19.4    0.0   19.4    0.0
 1992 232    12  13.40  19.60   7.90  2.904  0.682  0.000  0.682  0.000   20.1    0.0   20.1    0.0
 1992 233    13  13.30  19.40   6.20  2.830  0.635  0.000  0.635  0.000   20.7    0.0   20.7    0.0
 1992 234    14  16.90  23.10   9.50  3.891  0.597  0.000  0.597  0.000   21.3    0.0   21.3    0.0
 1992 235    15   7.80  20.10  13.90  1.794  1.203  0.003  1.200  0.000   22.5    0.0   22.5    0.0
 1992 236    16  17.00  19.30   9.60  3.725  3.725  0.011  3.714  0.000   26.3    0.0   26.2    0.0
 1992 237    17  17.80  21.00   7.10  3.901  0.743  0.016  0.726  0.000   27.0    0.0   27.0    0.0
 1992 238    18  18.00  21.20   5.80  3.909  0.692  0.021  0.671  0.000   27.7    0.1   27.6    0.0
 1992 239    19  17.90  20.30   6.20  3.853  0.652  0.025  0.626  0.000   28.3    0.1   28.3    0.0
 1992 240    20  17.60  25.40   6.30  4.057  0.621  0.032  0.590  0.000   29.0    0.1   28.9    0.0
 1992 241    21  11.50  18.80  11.40  2.541  0.583  0.025  0.559  0.000   29.5    0.1   29.4    0.0
 1992 242    22  14.20  24.40  11.00  3.361  0.570  0.038  0.532  0.000   30.1    0.2   29.9    0.0
 1992 243    23   5.50  20.90  15.20  1.290  0.527  0.018  0.509  0.000   30.6    0.2   30.5    0.0
 1992 244    24   7.20  13.80   9.60  1.456  1.456  0.031  1.425  0.000   32.1    0.2   31.9    0.0
 1992 245    25   7.50  14.00   7.20  1.485  0.793  0.036  0.757  0.000   32.9    0.3   32.6    0.0
 1992 246    26   5.70  14.80   8.60  1.158  0.726  0.031  0.695  0.000   33.6    0.3   33.3    0.0
 1992 247    27  14.90  17.40   7.30  3.101  0.737  0.092  0.646  0.000   34.4    0.4   34.0    0.0
 1992 248    28  18.80  18.80   6.80  3.969  0.739  0.133  0.606  0.000   35.1    0.5   34.6    0.0
 1992 249    29  18.30  21.20   6.10  3.965  0.726  0.153  0.573  0.000   35.8    0.7   35.2    0.0
 1992 250    30  18.30  18.80   8.70  3.925  0.721  0.177  0.544  0.000   36.5    0.8   35.7    0.0
 1992 251    31  17.80  20.60   9.70  3.943  0.723  0.204  0.520  0.000   37.3    1.0   36.2    0.0
 1992 252    32   5.90  20.10  13.60  1.342  0.579  0.081  0.498  0.000   37.8    1.1   36.7    0.0
 1992 253    33  11.20  20.00  13.40  2.536  0.657  0.178  0.479  0.000   38.5    1.3   37.2    0.0
 1992 254    34  12.60  21.60  13.10  2.900  0.697  0.235  0.462  0.000   39.2    1.5   37.7    0.0
 1992 255    35   8.60  21.20  14.90  1.996  1.996  0.186  1.810  0.000   41.2    1.7   39.5    0.0
 1992 256    36  16.90  19.30  12.30  3.734  1.519  0.399  1.120  0.000   42.7    2.1   40.6    0.0
 1992 257    37  10.20  16.70   8.80  2.104  0.792  0.249  0.543  0.000   43.5    2.4   41.1    0.0
 1992 258    38  17.10  20.10   6.20  3.606  0.971  0.453  0.518  0.000   44.5    2.8   41.7    0.0
 1992 259    39  19.70  21.30   9.00  4.324  1.079  0.582  0.497  0.000   45.6    3.4   42.1    0.0
 1992 260    40  12.60  22.60  12.60  2.895  0.905  0.427  0.478  0.000   46.5    3.8   42.6    0.0
 1992 261    41  14.90  26.70  15.20  3.666  3.666  0.601  3.065  0.000   50.1    4.4   45.7    0.0
 1992 262    42  19.80  16.60   9.30  4.054  4.054  0.762  3.292  0.000   54.2    5.2   49.0    0.0
 1992 263    43  21.60  19.30   5.20  4.414  4.081  0.874  3.207  0.000   58.3    6.1   52.2    0.0
 1992 264    44  21.40  25.60   5.90  4.783  4.027  0.991  3.036  0.000   62.3    7.1   55.2    0.0
 1992 265    45  21.20  30.00  10.20  5.166  2.607  1.167  1.439  0.000   64.9    8.2   56.7    0.0
 1992 266    46   6.50  12.70   8.80  1.239  1.239  0.315  0.924  0.000   66.1    8.5   57.6    0.0
 1992 267    47  16.00  18.60   6.50  3.247  3.247  0.843  2.404  0.000   69.4    9.4   60.0    0.0
 1992 268    48   6.60  13.20  10.60  1.287  1.287  0.348  0.939  0.000   70.7    9.7   60.9    0.0
 1992 269    49  21.20  12.50   4.50  3.842  3.842  1.071  2.772  0.000   74.5   10.8   63.7    0.0
 1992 270    50  20.60  14.20   0.80  3.690  3.690  1.018  2.672  0.000   78.2   11.8   66.4    0.0
 1992 271    51  21.70  20.00   4.50  4.439  3.263  0.943  2.320  0.000   81.5   12.8   68.7    0.0
 1992 272    52  23.00  21.40   5.30  4.827  3.223  1.067  2.155  0.000   84.7   13.8   70.9    0.0
 1992 273    53  23.30  23.20   6.10  5.033  2.530  1.194  1.335  0.000   87.2   15.0   72.2    0.0
 1992 274    54  22.50  26.20  10.30  5.216  2.407  1.348  1.059  0.000   89.6   16.4   73.2    0.0
 1992 275    55  12.50  26.40  11.00  2.906  1.760  0.855  0.905  0.000   91.4   17.2   74.2    0.0
 1992 276    56  11.80  21.80  13.00  2.620  2.461  0.861  1.600  0.000   93.8   18.1   75.8    0.0
 1992 277    57  17.90  20.60  11.10  3.833  2.219  1.374  0.846  0.000   96.1   19.5   76.6    0.0
 1992 278    58  18.00  25.50  11.70  4.106  2.340  1.578  0.761  0.000   98.4   21.0   77.4    0.0
 1992 279    59   7.10  18.20  11.80  1.469  1.307  0.609  0.698  0.000   99.7   21.7   78.1    0.0
 1992 280    60  24.40  15.90   7.40  4.681  4.681  2.030  2.651  0.000  104.4   23.7   80.7    0.0
 1992 281    61  21.30  15.60   4.20  3.937  3.150  1.745  1.405  0.000  107.5   25.4   82.1    0.0
 1992 282    62  24.30  19.00   3.40  4.686  4.579  2.065  2.514  0.000  112.1   27.5   84.6    0.0
 1992 283    63  24.30  21.00   6.60  4.972  3.535  2.140  1.395  0.000  115.7   29.6   86.0    0.0
 1992 284    64  25.10  25.30   7.30  5.454  3.528  2.440  1.088  0.000  119.2   32.1   87.1    0.0
 1992 285    65  16.70  27.20   9.20  3.761  2.697  1.774  0.923  0.000  121.9   33.8   88.0    0.0
 1992 286    66  22.70  24.00  12.40  5.023  3.333  2.517  0.816  0.000  125.2   36.4   88.8    0.0
 1992 287    67  25.10  25.60   8.60  5.463  3.656  2.917  0.739  0.000  128.9   39.3   89.6    0.0
 1992 288    68  24.70  29.50  11.40  5.741  5.741  3.222  2.519  0.000  134.6   42.5   92.1    0.0
 1992 289    69   7.60  31.50  15.50  1.855  1.855  1.106  0.749  0.000  136.5   43.6   92.9    0.0
 1992 290    70   9.30  20.50  15.70  1.988  1.988  1.239  0.749  0.000  138.5   44.8   93.6    0.0
 1992 291    71  23.40  21.20  12.00  4.873  4.873  3.155  1.718  0.000  143.3   48.0   95.3    0.0
 1992 292    72  25.90  21.20   7.50  5.170  5.170  3.447  1.723  0.000  148.5   51.5   97.0    0.0
 1992 293    73   9.10  19.80  11.20  1.839  1.839  1.251  0.588  0.000  150.3   52.7   97.6    0.0
 1992 294    74  24.10  18.60  10.30  4.743  4.743  3.297  1.446  0.000  155.1   56.0   99.1    0.0
 1992 295    75  26.10  21.30   5.50  5.092  5.092  3.603  1.490  0.000  160.2   59.6  100.6    0.0
 1992 296    76  24.90  24.50   7.60  5.155  5.155  3.701  1.454  0.000  165.3   63.3  102.0    0.0
 1992 297    77  25.00  27.30  12.00  5.545  5.545  4.061  1.485  0.000  170.9   67.4  103.5    0.0
 1992 298    78  24.60  30.90  14.60  5.788  5.264  4.352  0.912  0.000  176.1   71.7  104.4    0.0
 1992 299    79   9.50  26.40  17.60  2.165  2.165  1.678  0.487  0.000  178.3   73.4  104.9    0.0
 1992 300    80  26.70  27.40  17.30  6.127  6.127  4.845  1.281  0.000  184.4   78.2  106.2    0.0
 1992 301    81  27.40  30.00  15.80  6.385  6.385  5.170  1.215  0.000  190.8   83.4  107.4    0.0
 1992 302    82  10.50  15.30   6.40  1.865  1.865  1.543  0.322  0.000  192.7   85.0  107.7    0.0
 1992 303    83  27.70  21.90   3.90  5.275  5.275  4.379  0.895  0.000  198.0   89.3  108.6    0.0
 1992 304    84  26.80  21.80   6.40  5.218  5.218  4.296  0.922  0.000  203.2   93.6  109.5    0.0
 1992 305    85  26.90  23.80   6.80  5.392  5.392  4.475  0.917  0.000  208.6   98.1  110.5    0.0
 1992 306    86  27.10  27.10   9.00  5.764  5.764  4.828  0.936  0.000  214.3  102.9  111.4    0.0
 1992 307    87  27.30  30.20  13.00  6.209  6.209  5.263  0.946  0.000  220.5  108.2  112.3    0.0
 1992 308    88  21.90  19.80   9.40  4.242  4.242  3.650  0.591  0.000  224.8  111.8  112.9    0.0
 1992 309    89  27.20  14.10   6.50  4.724  4.724  4.091  0.633  0.000  229.5  115.9  113.6    0.0
 1992 310    90  24.50  16.40   2.70  4.239  4.239  3.677  0.562  0.000  233.7  119.6  114.1    0.0
 1992 311    91  27.00  19.20   4.80  4.988  4.988  4.178  0.810  0.000  238.7  123.8  114.9    0.0
 1992 312    92  27.40  21.50   7.30  5.345  5.345  4.481  0.864  0.000  244.1  128.3  115.8    0.0
 1992 313    93  28.00  25.20   8.30  5.777  5.777  4.876  0.901  0.000  249.8  133.1  116.7    0.0
 1992 314    94  28.20  29.80  10.00  6.233  6.233  5.309  0.925  0.000  256.1  138.5  117.6    0.0
 1992 315    95   8.60  22.00  16.00  1.813  1.813  1.562  0.251  0.000  257.9  140.0  117.9    0.0
 1992 316    96  23.60  28.40  16.10  5.367  5.367  4.669  0.698  0.000  263.3  144.7  118.6    0.0
 1992 317    97  28.00  29.50  15.30  6.395  6.395  5.657  0.738  0.000  269.7  150.3  119.3    0.0
 1992 318    98  28.50  27.90  12.90  6.264  6.264  5.603  0.661  0.000  275.9  155.9  120.0    0.0
 1992 319    99  19.40  31.40  14.40  4.487  4.487  4.038  0.449  0.000  280.4  160.0  120.4    0.0
 1992 320   100  23.00  25.50  17.30  5.080  5.080  4.597  0.483  0.000  285.5  164.6  120.9    0.0
 1992 321   101  28.80  20.40  11.50  5.691  5.691  5.166  0.525  0.000  291.2  169.7  121.4    0.0
 1992 322   102  28.20  21.50   7.70  5.467  5.467  4.964  0.503  0.000  296.6  174.7  121.9    0.0
 1992 323   103  28.80  23.90   7.20  5.738  5.738  5.206  0.532  0.000  302.4  179.9  122.5    0.0
 1992 324   104  29.50  28.10  11.20  6.402  6.402  5.805  0.597  0.000  308.8  185.7  123.1    0.0
 1992 325   105  22.20  30.00  13.80  5.026  5.026  4.561  0.465  0.000  313.8  190.3  123.5    0.0
 1992 326   106   8.70  21.20  13.60  1.768  1.768  1.606  0.162  0.000  315.6  191.9  123.7    0.0
 1992 327   107  25.70  19.30  10.00  4.938  4.938  4.483  0.456  0.000  320.5  196.4  124.1    0.0
 1992 328   108  22.10  20.60   6.40  4.185  4.185  3.792  0.392  0.000  324.7  200.2  124.5    0.0
 1992 329   109  24.00  26.00  11.10  5.075  5.075  4.591  0.485  0.000  329.8  204.8  125.0    0.0
 1992 330   110  21.90  23.90  15.40  4.675  4.675  4.226  0.450  0.000  334.5  209.0  125.5    0.0
 1992 331   111  19.00  26.00  14.30  4.124  4.124  3.725  0.398  0.000  338.6  212.7  125.9    0.0
 1992 332   112  30.10  27.20  12.90  6.554  6.521  5.919  0.602  0.000  345.1  218.6  126.5    0.0
 1992 333   113  21.00  27.70  13.50  4.621  4.621  4.172  0.450  0.000  349.7  222.8  126.9    0.0
 1992 334   114  19.80  29.80  16.90  4.581  4.581  4.134  0.448  0.000  354.3  226.9  127.4    0.0
 1992 335   115  21.90  28.00  18.70  5.033  5.033  4.542  0.491  0.000  359.3  231.5  127.9    0.0
 1992 336   116  29.50  23.90  14.00  6.228  6.228  5.620  0.608  0.000  365.6  237.1  128.5    0.0
 1992 337   117  30.20  24.80   8.90  6.183  6.183  5.556  0.628  0.000  371.7  242.6  129.1    0.0
 1992 338   118  26.20  27.40   9.70  5.580  5.580  4.991  0.589  0.000  377.3  247.6  129.7    0.0
 1992 339   119  30.30  29.10  13.50  6.789  6.789  6.050  0.739  0.000  384.1  253.7  130.4    0.0
 1992 340   120  18.70  28.20  13.80  4.158  4.158  3.692  0.465  0.000  388.3  257.4  130.9    0.0
 1992 341   121  25.20  29.60  18.90  5.919  5.919  5.239  0.679  0.000  394.2  262.6  131.6    0.0
 1992 342   122  23.30  26.40  15.40  5.140  5.140  4.536  0.604  0.000  399.3  267.2  132.2    0.0
 1992 343   123  25.40  27.90  14.80  5.678  5.678  4.996  0.682  0.000  405.0  272.2  132.9    0.0
 1992 344   124  21.00  26.70  16.50  4.692  4.692  4.117  0.576  0.000  409.7  276.3  133.4    0.0
 1992 345   125  22.70  27.30  18.10  5.172  5.172  4.525  0.647  0.000  414.9  280.8  134.1    0.0
 1992 346   126  23.20  26.50  15.70  5.143  5.143  4.488  0.655  0.000  420.0  285.3  134.7    0.0
 1992 347   127  29.50  27.30  13.40  6.485  6.485  5.646  0.839  0.000  426.5  290.9  135.6    0.0
 1992 348   128  30.90  30.20  14.90  7.108  7.108  6.175  0.934  0.000  433.6  297.1  136.5    0.0
 1992 349   129  28.90  28.40  15.70  6.555  6.360  5.682  0.678  0.000  440.0  302.8  137.2    0.0
 1992 350   130  30.30  28.00  10.00  6.544  6.544  5.651  0.893  0.000  446.5  308.4  138.1    0.0
 1992 351   131  24.80  29.80  12.50  5.583  5.583  4.800  0.783  0.000  452.1  313.2  138.9    0.0
 1992 352   132  19.40  27.60  17.70  4.434  4.434  3.795  0.639  0.000  456.5  317.0  139.5    0.0
 1992 353   133  29.70  30.40  14.50  6.843  6.843  5.829  1.014  0.000  463.4  322.9  140.5    0.0
 1992 354   134  18.00  30.80  14.60  4.172  4.172  3.535  0.637  0.000  467.5  326.4  141.1    0.0
 1992 355   135  31.80  33.80  18.10  7.818  7.818  6.589  1.229  0.000  475.4  333.0  142.4    0.0
 1992 356   136  25.50  32.40  15.70  6.074  6.074  5.089  0.985  0.000  481.4  338.1  143.4    0.0
 1992 357   137  11.20  29.40  18.60  2.639  2.639  2.197  0.442  0.000  484.1  340.3  143.8    0.0
 1992 358   138  11.20  27.70  20.80  2.634  2.634  2.178  0.456  0.000  486.7  342.4  144.3    0.0
 1992 359   139  27.80  28.90  17.70  6.480  6.480  5.320  1.160  0.000  493.2  347.8  145.4    0.0
 1992 360   140  22.90  27.40  15.10  5.148  5.148  4.195  0.953  0.000  498.3  352.0  146.4    0.0
 1992 361   141  31.40  27.40  13.20  6.962  6.962  5.629  1.333  0.000  505.3  357.6  147.7    0.0
 1992 362   142  31.00  28.00  12.60  6.896  6.896  5.529  1.367  0.000  512.2  363.1  149.1    0.0
 1992 363   143  30.00  32.00  13.10  7.022  6.919  5.578  1.341  0.000  519.1  368.7  150.4    0.0
 1992 364   144   9.10  25.60  19.70  2.085  2.085  1.640  0.445  0.000  521.2  370.3  150.9    0.0
 1992 365   145   9.10  23.30  19.60  2.030  2.030  1.580  0.450  0.000  523.2  371.9  151.3    0.0
 1992 366   146   9.10  20.20  19.20  1.952  1.952  1.502  0.450  0.000  525.2  373.4  151.8    0.0
 1993 001   147   9.10  21.20  19.60  1.985  1.985  1.510  0.475  0.000  527.2  374.9  152.2    0.0
 1993 002   148   9.10  21.80  19.40  1.999  1.999  1.503  0.496  0.000  529.2  376.4  152.7    0.0
 1993 003   149   9.10  21.90  19.70  2.009  2.009  1.492  0.517  0.000  531.2  377.9  153.2    0.0
 1993 004   150  14.90  28.90  19.80  3.573  3.573  2.620  0.954  0.000  534.7  380.5  154.2    0.0
 1993 005   151  23.60  30.80  21.50  5.858  5.858  4.238  1.620  0.000  540.6  384.8  155.8    0.0
 1993 006   152  29.90  32.00  19.70  7.432  7.432  5.303  2.130  0.000  548.0  390.1  158.0    0.0
 1993 007   153  12.50  27.20  20.30  2.965  2.965  2.085  0.880  0.000  551.0  392.2  158.8    0.0
 1993 008   154  20.20  26.60  20.10  4.760  4.760  3.295  1.465  0.000  555.8  395.5  160.3    0.0
 1993 009   155  30.70  26.90  16.00  7.048  7.048  4.796  2.252  0.000  562.8  400.3  162.5    0.0
 1993 010   156  30.90  31.10  16.00  7.454  7.379  4.983  2.395  0.000  570.2  405.2  164.9    0.0
 1993 011   157  31.30  32.20  17.60  7.746  7.746  5.083  2.663  0.000  577.9  410.3  167.6    0.0
 1993 012   158  30.90  32.70  19.60  7.814  6.719  5.027  1.692  0.000  584.7  415.4  169.3    0.0
 1993 013   159  22.70  33.00  20.70  5.815  4.871  3.663  1.208  0.000  589.5  419.0  170.5    0.0
 1993 014   160  17.40  30.10  22.30  4.381  3.692  2.699  0.993  0.000  593.2  421.7  171.5    0.0
 1993 015   161  26.90  30.80  22.50  6.847  6.847  4.121  2.726  0.000  600.1  425.8  174.2    0.0
 1993 016   162  17.50  28.50  22.00  4.339  4.339  2.550  1.790  0.000  604.4  428.4  176.0    0.0
 1993 017   163  25.50  23.30  16.60  5.727  5.343  3.282  2.061  0.000  609.7  431.7  178.1    0.0
 1993 018   164  25.10  24.80  11.70  5.529  5.529  3.090  2.439  0.000  615.3  434.8  180.5    0.0
 1993 019   165  26.40  26.50  15.60  6.137  4.949  3.344  1.605  0.000  620.2  438.1  182.1    0.0
 1993 020   166  29.90  30.10  16.60  7.299  5.153  3.977  1.176  0.000  625.4  442.1  183.3    0.0
 1993 021   167  30.10  31.80  16.50  7.481  5.052  4.077  0.975  0.000  630.4  446.2  184.3    0.0
 1993 022   168  30.00  33.20  19.80  7.751  5.075  4.224  0.851  0.000  635.5  450.4  185.1    0.0
