*SOIL NITROGEN DAILY OUTPUT FILE

*DSSAT Cropping System Model Ver. 4.0.2.000               Aug 11, 2016; 20:13:27

*RUN   1        : UYMZ                    
 MODEL          : MZCER040 - Maize           
 EXPERIMENT     : UYMZ0148 MZ    late to create DSS                             
 TREATMENT  1   : UYMZ                    

@YEAR DOY   DAS  NAPC  NI#M    NLCC   NIAD    NOAD   NITD   NHTD  NI1D  NI2D  NI3D  NI4D  NI5D  NI6D  NI7D  NI8D  NI9D  NI10  NH1D  NH2D  NH3D  NH4D  NH5D  NH6D  NH7D  NH8D  NH9D  NH10    NMNC    NITC    NDNC    NIMC    AMLC
 1990 220     0     0     0     0.0   99.5   16645   77.2   22.3  16.6  15.4  15.2   8.6   4.6   0.0   0.1   0.1   0.0   0.0   0.0   1.2   1.5   1.4   1.4  1.50  1.46  1.45  0.00  0.00    0.73    2.41    0.00    0.00    0.00
 1990 221     1     0     0     0.0  100.2   16645   78.6   21.6  16.6  15.7  15.4   8.7   4.7   0.0   0.1   0.1   0.0   0.0   0.1   1.0   1.4   1.4   1.4  1.51  1.42  1.40  0.00  0.00    1.44    3.78    0.00    0.00    0.00
 1990 222     2     0     0     0.0  100.9   16644   79.9   21.0  16.8  16.0  15.5   8.8   4.8   0.1   0.2   0.2   0.0   0.0   0.1   0.9   1.4   1.3   1.3  1.51  1.39  1.36  0.00  0.00    2.14    5.08    0.00    0.00    0.00
 1990 223     3     0     0     0.0  101.6   16643   81.1   20.5   6.0  16.4  19.2   8.9   4.8   0.1   0.2   0.2   0.0   0.0   0.1   0.8   1.4   1.2   1.3  1.51  1.36  1.32  0.00  0.00    2.81    6.27    0.00    0.00    0.00
 1990 224     4     2     2     0.0  104.1   16643   83.0   21.1   8.0  15.9  19.7   9.1   4.9   0.1   0.2   0.3   0.0   0.0   1.7   0.9   1.3   1.2   1.2  1.52  1.32  1.27  0.00  0.00    3.48    7.23    0.00    0.00    0.13
 1990 225     5     2     2     0.0  104.7   16642   85.0   19.7   9.6  16.0  19.8   9.2   5.0   0.1   0.3   0.3   0.0   0.0   0.0   0.8   1.3   1.1   1.2  1.52  1.29  1.23  0.00  0.00    4.17    9.23    0.00    0.00    0.24
 1990 226     6     2     2     0.0  105.4   16641   86.1   19.3   9.6  16.2  19.9   9.4   5.0   0.1   0.3   0.3   0.0   0.0   0.1   0.7   1.3   1.1   1.1  1.52  1.26  1.19  0.00  0.00    4.86   10.29    0.00    0.00    0.24
 1990 227     7     2     2     0.0  106.1   16640   87.2   18.8   5.0  14.5  21.9  10.3   5.1   0.2   0.4   0.4   0.0   0.0   0.1   0.6   1.3   1.1   1.1  1.53  1.23  1.16  0.00  0.00    5.58   11.42    0.00    0.00    0.26
 1990 228     8     2     2     0.0  106.8   16640   87.9   18.9   5.0  14.3  21.4  11.1   5.1   0.2   0.4   0.4   0.0   0.0   0.2   0.7   1.4   1.0   1.1  1.53  1.20  1.12  0.00  0.00    6.27   12.05    0.00    0.00    0.28
 1990 229     9     2     2     0.0  107.4   16639   88.6   18.8   5.3  14.2  21.0  11.5   5.2   0.2   0.5   0.5   0.0   0.0   0.1   0.8   1.5   1.0   1.0  1.53  1.17  1.09  0.00  0.00    6.92   12.74    0.00    0.00    0.31
 1990 230    10     2     2     0.0  108.0   16639   89.3   18.6   5.7  14.2  21.0  11.7   5.3   0.2   0.5   0.5   0.0   0.0   0.1   0.8   1.5   1.0   1.0  1.53  1.15  1.05  0.00  0.00    7.53   13.52    0.00    0.00    0.33
 1990 231    11     2     2     0.0  108.5   16638   90.2   18.3   6.1  14.1  21.0  11.8   5.3   0.2   0.5   0.5   0.0   0.0   0.1   0.7   1.5   0.9   1.0  1.54  1.12  1.02  0.00  0.00    8.11   14.41    0.00    0.00    0.35
 1990 232    12     2     2     0.0  109.1   16637   91.1   18.0   6.4  14.1  21.1  12.0   5.4   0.3   0.6   0.6   0.0   0.0   0.1   0.7   1.5   0.9   1.0  1.54  1.10  0.99  0.00  0.00    8.67   15.25    0.00    0.00    0.37
 1990 233    13     2     2     0.0  109.6   16637   91.9   17.7   6.7  14.1  21.1  12.1   5.4   0.3   0.6   0.6   0.0   0.0   0.1   0.6   1.4   0.9   0.9  1.54  1.08  0.96  0.00  0.00    9.25   16.10    0.00    0.00    0.39
 1990 234    14     2     2     0.0  110.0   16636   92.6   17.4   7.0  14.0  21.2  12.2   5.5   0.3   0.6   0.6   0.0   0.0   0.1   0.6   1.4   0.9   0.9  1.54  1.05  0.93  0.00  0.00    9.83   16.93    0.00    0.00    0.41
 1990 235    15     2     2     0.0  110.6   16636   93.4   17.2   7.2  14.0  21.3  12.3   5.5   0.3   0.7   0.7   0.0   0.0   0.1   0.6   1.4   0.8   0.9  1.55  1.03  0.91  0.00  0.00   10.41   17.73    0.00    0.00    0.42
 1990 236    16     2     2     0.0  111.1   16635   94.1   17.0   7.5  14.0  21.4  12.3   5.6   0.3   0.7   0.7   0.0   0.0   0.1   0.6   1.4   0.8   0.9  1.55  1.01  0.88  0.00  0.00   10.96   18.48    0.00    0.00    0.44
 1990 237    17     2     2     0.0  111.6   16635   94.8   16.8   7.7  14.1  21.4  12.4   5.6   0.3   0.7   0.7   0.0   0.0   0.1   0.6   1.3   0.8   0.9  1.55  0.99  0.86  0.00  0.00   11.49   19.20    0.00    0.00    0.46
 1990 238    18     2     2     0.0  112.1   16634   95.5   16.6   7.9  14.1  21.5  12.5   5.7   0.4   0.8   0.8   0.0   0.0   0.1   0.6   1.3   0.8   0.8  1.55  0.97  0.83  0.00  0.00   12.03   19.92    0.00    0.00    0.48
 1990 239    19     2     2     0.0  112.6   16633   96.3   16.4   3.3  10.5  20.6  14.8   7.7   0.4   0.8   0.8   0.0   0.0   0.1   0.5   1.3   0.8   0.8  1.56  0.95  0.81  0.00  0.00   12.59   20.65    0.00    0.00    0.50
 1990 240    20     2     2     0.0  113.2   16633   96.5   16.6   3.2  10.3  20.3  14.7   8.0   0.6   0.8   0.8   0.0   0.0   0.1   0.6   1.4   0.8   0.8  1.56  0.93  0.78  0.00  0.00   13.14   20.93    0.00    0.00    0.51
 1990 241    21     2     2     0.1  113.5   16632   96.7   16.9   3.2  10.1  20.0  14.4   8.2   0.8   0.8   0.8   0.0   0.0   0.1   0.7   1.5   0.8   0.9  1.57  0.92  0.76  0.00  0.00   13.66   21.21    0.00    0.00    0.52
 1990 242    22     2     2     0.2  114.0   16632   96.9   17.0   3.5  10.1  19.8  14.2   8.3   0.9   0.9   0.9   0.0   0.0   0.1   0.7   1.5   0.9   0.9  1.59  0.92  0.74  0.00  0.00   14.17   21.57    0.00    0.00    0.52
 1990 243    23     2     2     0.2  114.4   16631   97.2   17.2   3.9  10.1  19.8  14.1   8.3   1.0   0.9   0.9   0.0   0.0   0.1   0.6   1.6   0.9   0.9  1.60  0.92  0.74  0.00  0.00   14.67   21.88    0.00    0.00    0.52
 1990 244    24     2     2     0.2  114.8   16631   97.6   17.2   4.3  10.1  19.9  14.0   8.3   1.0   0.9   0.9   0.0   0.0   0.1   0.6   1.6   0.9   0.9  1.61  0.92  0.73  0.00  0.00   15.10   22.29    0.03    0.00    0.53
 1990 245    25     2     2     0.2  115.2   16631   98.0   17.3   4.5  10.1  19.9  14.0   8.3   1.0   0.9   0.9   0.0   0.0   0.1   0.6   1.5   0.9   0.9  1.63  0.92  0.73  0.00  0.00   15.50   22.67    0.04    0.00    0.53
 1990 246    26     2     2     0.2  115.6   16630   98.3   17.3   4.8  10.1  20.0  14.0   8.3   1.1   0.9   0.9   0.0   0.0   0.1   0.6   1.5   0.9   0.9  1.64  0.92  0.72  0.00  0.00   15.90   23.04    0.06    0.00    0.53
 1990 247    27     2     2     0.2  116.0   16630   98.7   17.3   5.0  10.2  20.0  14.0   8.3   1.1   0.9   0.9   0.0   0.0   0.1   0.6   1.5   0.9   0.9  1.65  0.93  0.72  0.00  0.00   16.31   23.42    0.07    0.00    0.53
 1990 248    28     2     2     0.2  116.4   16629   99.1   17.3   5.3  10.2  20.1  14.1   8.3   1.1   0.9   0.9   0.0   0.0   0.1   0.5   1.4   0.9   1.0  1.67  0.93  0.71  0.00  0.00   16.70   23.83    0.07    0.00    0.54
 1990 249    29     2     2     0.2  116.8   16629   99.5   17.3   5.5  10.3  20.1  14.1   8.4   1.1   0.9   0.9   0.0   0.0   0.1   0.5   1.4   0.9   1.0  1.68  0.93  0.71  0.00  0.00   17.12   24.26    0.08    0.00    0.54
 1990 250    30     2     2     0.2  117.2   16628  100.0   17.3   4.9  10.7  20.2  14.2   8.4   1.1   0.9   0.9   0.0   0.0   0.1   0.5   1.4   0.9   1.0  1.69  0.93  0.70  0.00  0.00   17.57   24.71    0.08    0.00    0.54
 1990 251    31     2     2     0.2  117.7   16628  100.3   17.4   3.1   9.1  19.9  15.3   8.9   1.2   0.9   1.0   0.0   0.0   0.2   0.6   1.4   0.9   1.0  1.70  0.93  0.70  0.00  0.00   18.05   25.09    0.09    0.00    0.54
 1990 252    32     2     2     0.4  117.9   16628  100.2   17.7   3.1   9.0  19.4  14.9   9.1   1.4   1.0   1.0   0.0   0.0   0.2   0.6   1.4   0.9   1.0  1.72  0.94  0.70  0.00  0.00   18.51   25.23    0.12    0.00    0.55
 1990 253    33     2     2     0.5  118.3   16627  100.3   17.9   3.3   8.8  19.1  14.7   9.2   1.6   1.0   1.0   0.0   0.0   0.1   0.7   1.5   0.9   1.0  1.73  0.94  0.69  0.00  0.00   19.01   25.47    0.14    0.00    0.55
 1990 254    34     2     2     0.6  118.7   16626  100.5   18.1   2.1   7.5  17.9  15.0  10.3   2.0   1.1   1.0   0.0   0.0   0.1   0.7   1.6   0.9   1.0  1.75  0.94  0.69  0.00  0.00   19.56   25.84    0.16    0.00    0.55
 1990 255    35     2     2     0.8  118.5   16626  100.1   18.5   2.2   7.3  17.5  14.6  10.3   2.3   1.2   1.0   0.0   0.0   0.1   0.7   1.6   1.0   1.1  1.76  0.94  0.68  0.00  0.00   20.13   26.04    0.26    0.00    0.56
 1990 256    36     2     2     1.0  118.2   16625   99.5   18.8   2.3   7.1  17.1  14.3  10.2   2.4   1.2   1.0   0.0   0.0   0.1   0.8   1.7   1.0   1.1  1.78  0.94  0.68  0.00  0.00   20.70   26.27    0.52    0.00    0.56
 1990 257    37     2     2     1.1  118.4   16625   99.5   18.9   2.5   7.1  16.9  14.1  10.2   2.5   1.3   1.0   0.0   0.0   0.1   0.8   1.8   1.0   1.1  1.79  0.95  0.68  0.00  0.00   21.25   26.66    0.66    0.00    0.56
 1990 258    38     2     2     1.1  118.8   16624   99.9   18.9   2.8   7.2  17.0  14.0  10.1   2.6   1.3   1.0   0.0   0.0   0.1   0.7   1.7   1.0   1.1  1.80  0.95  0.67  0.00  0.00   21.76   27.19    0.70    0.00    0.57
 1990 259    39     2     2     1.1  119.2   16624  100.3   18.9   3.1   7.2  17.1  14.0  10.1   2.6   1.3   1.0   0.0   0.0   0.1   0.7   1.7   1.0   1.1  1.82  0.95  0.67  0.00  0.00   22.23   27.67    0.73    0.00    0.57
 1990 260    40     2     2     1.1  119.5   16623  100.6   18.9   3.3   7.3  17.1  14.0  10.1   2.6   1.3   1.1   0.0   0.0   0.1   0.6   1.6   1.0   1.1  1.83  0.95  0.66  0.00  0.00   22.69   28.14    0.75    0.00    0.57
 1990 261    41     2     2     1.2  119.7   16623  100.8   18.9   1.8   5.8  15.8  14.4  11.2   3.0   1.4   1.1   0.0   0.0   0.1   0.6   1.6   1.1   1.1  1.84  0.95  0.66  0.00  0.00   23.17   28.61    0.76    0.00    0.57
 1990 262    42     2     2     1.5  119.4   16622  100.2   19.2   1.7   5.7  15.3  13.9  11.1   3.3   1.5   1.1   0.0   0.0   0.2   0.7   1.6   1.1   1.2  1.85  0.95  0.66  0.00  0.00   23.67   28.75    0.98    0.00    0.58
 1990 263    43     2     2     1.7  119.2   16622   99.7   19.5   1.9   5.6  15.0  13.6  11.0   3.4   1.6   1.2   0.0   0.0   0.1   0.8   1.7   1.1   1.2  1.87  0.96  0.65  0.00  0.00   24.19   29.00    1.11    0.00    0.58
 1990 264    44     2     2     1.8  119.3   16621   99.7   19.6   2.1   5.6  14.9  13.5  10.9   3.5   1.7   1.2   0.0   0.0   0.1   0.7   1.7   1.1   1.2  1.88  0.96  0.65  0.00  0.00   24.72   29.37    1.19    0.00    0.58
 1990 265    45     2     2     1.8  119.4   16621   99.9   19.6   2.3   5.6  14.9  13.4  10.8   3.6   1.7   1.2   0.0   0.0   0.1   0.7   1.7   1.1   1.2  1.90  0.96  0.65  0.00  0.00   25.24   29.90    1.24    0.00    0.59
 1990 266    46     2     2     1.8  119.0   16620   99.6   19.5   2.4   5.6  14.6  13.4  10.8   3.6   1.7   1.2   0.0   0.0   0.1   0.6   1.6   1.1   1.2  1.91  0.96  0.64  0.00  0.00   25.76   30.44    1.27    0.00    0.59
 1990 267    47     2     2     1.8  118.9   16620   99.5   19.5   2.6   5.5  14.4  13.4  10.8   3.6   1.7   1.2   0.0   0.0   0.1   0.6   1.6   1.2   1.2  1.92  0.96  0.64  0.00  0.00   26.27   30.94    1.29    0.00    0.59
 1990 268    48     2     2     1.8  119.1   16619   99.6   19.4   2.8   5.6  14.4  13.4  10.9   3.6   1.8   1.2   0.0   0.0   0.1   0.6   1.5   1.2   1.2  1.93  0.96  0.63  0.00  0.00   26.77   31.42    1.30    0.00    0.60
 1990 269    49     2     2     1.8  119.2   16619   99.9   19.4   2.9   5.6  14.3  13.5  10.9   3.6   1.8   1.2   0.0   0.0   0.1   0.6   1.5   1.1   1.2  1.95  0.96  0.63  0.00  0.00   27.26   31.97    1.32    0.00    0.60
 1990 270    50     2     2     1.8  119.4   16618  100.1   19.3   3.1   5.7  14.3  13.5  10.9   3.6   1.8   1.2   0.0   0.0   0.1   0.6   1.4   1.1   1.2  1.96  0.97  0.63  0.00  0.00   27.74   32.51    1.33    0.00    0.60
 1990 271    51     2     2     1.8  119.3   16618  100.1   19.2   3.2   5.7  14.1  13.6  10.9   3.6   1.8   1.2   0.0   0.0   0.1   0.6   1.4   1.1   1.3  1.97  0.97  0.62  0.00  0.00   28.25   33.07    1.34    0.00    0.60
 1990 272    52     2     2     1.8  119.4   16617  100.2   19.2   3.4   5.7  14.0  13.6  10.9   3.6   1.8   1.2   0.0   0.0   0.1   0.5   1.4   1.0   1.3  1.98  0.97  0.62  0.00  0.00   28.80   33.64    1.35    0.00    0.61
 1990 273    53     2     2     1.8  118.8   16617   99.7   19.1   3.4   5.7  13.7  13.6  10.9   3.6   1.8   1.3   0.0   0.0   0.1   0.5   1.3   1.0   1.3  2.00  0.97  0.62  0.00  0.00   29.37   34.24    1.36    0.00    0.61
 1990 274    54     2     2     1.8  118.3   16616   99.3   19.0   3.5   5.7  13.4  13.6  11.0   3.6   1.8   1.3   0.0   0.0   0.1   0.5   1.3   1.0   1.3  2.01  0.97  0.61  0.00  0.00   29.98   34.88    1.37    0.00    0.61
 1990 275    55     2     2     1.8  117.7   16615   98.8   18.9   3.6   5.6  13.0  13.5  11.0   3.6   1.8   1.3   0.0   0.0   0.1   0.5   1.2   0.9   1.3  2.03  0.97  0.61  0.00  0.00   30.63   35.55    1.38    0.00    0.62
 1990 276    56     2     2     1.8  116.3   16615   97.5   18.8   3.6   5.5  12.5  13.4  11.0   3.6   1.8   1.3   0.0   0.0   0.1   0.5   1.2   0.9   1.3  2.04  0.97  0.61  0.00  0.00   31.27   36.21    1.39    0.00    0.62
 1990 277    57     2     2     1.8  115.4   16614   96.7   18.7   3.6   5.4  12.1  13.2  11.1   3.6   1.8   1.3   0.0   0.0   0.1   0.5   1.2   0.9   1.3  2.05  0.98  0.60  0.00  0.00   31.94   36.99    1.39    0.00    0.62
 1990 278    58     2     2     1.8  114.3   16613   95.8   18.5   3.7   5.4  11.6  13.1  11.2   3.6   1.8   1.3   0.0   0.0   0.1   0.5   1.1   0.8   1.2  2.07  0.98  0.60  0.00  0.00   32.65   37.81    1.40    0.00    0.62
 1990 279    59     2     2     1.8  113.7   16613   95.3   18.4   2.1   5.4  11.9  12.9  11.2   3.7   1.9   1.3   0.0   0.0   0.1   0.5   1.1   0.8   1.2  2.08  0.98  0.60  0.00  0.00   33.32   38.58    1.41    0.00    0.63
 1990 280    60     2     2     1.8  112.9   16612   94.5   18.4   1.8   5.1  11.7  12.9  11.3   3.7   1.9   1.3   0.0   0.0   0.2   0.6   1.1   0.8   1.1  2.10  0.98  0.59  0.00  0.00   34.01   39.13    1.41    0.00    0.65
 1990 281    61     2     2     2.0  109.7   16611   91.1   18.5   0.6   3.1   8.1  10.9  12.0   5.1   2.5   1.6   0.0   0.0   0.2   0.7   1.1   0.8   1.1  2.11  0.98  0.59  0.00  0.00   34.68   39.53    1.42    0.00    0.68
 1990 282    62     2     2     2.8  107.7   16611   89.0   18.8   0.7   2.9   7.5  10.2  11.6   5.2   2.7   1.7   0.0   0.0   0.0   0.7   1.2   0.8   1.1  2.13  0.99  0.59  0.00  0.00   35.31   39.76    1.52    0.00    0.73
 1990 283    63     2     2     3.2  105.2   16610   86.2   19.0   0.7   2.6   6.8   9.6  11.2   5.2   2.8   1.7   0.0   0.0   0.1   0.8   1.2   0.8   1.1  2.14  0.99  0.59  0.00  0.00   35.91   39.96    1.58    0.00    0.74
 1990 284    64     2     2     3.4  103.1   16610   84.2   18.9   0.8   2.6   6.3   9.2  10.9   5.2   2.8   1.7   0.0   0.0   0.1   0.7   1.1   0.8   1.1  2.16  0.99  0.59  0.00  0.00   36.52   40.50    1.62    0.00    0.76
 1990 285    65     2     2     3.6  102.3   16609   83.3   18.9   0.4   1.8   5.2   8.1  10.6   6.0   3.3   1.9   0.0   0.0   0.1   0.7   1.1   0.8   1.1  2.17  1.00  0.59  0.00  0.00   37.13   41.01    1.64    0.00    0.76
 1990 286    66     2     2     4.3   97.9   16608   78.8   19.0   0.4   1.6   4.4   7.3   9.7   5.9   3.4   2.0   0.0   0.0   0.1   0.7   1.1   0.8   1.1  2.18  1.00  0.59  0.00  0.00   37.72   41.20    1.90    0.00    0.76
 1990 287    67     2     2     4.8   95.0   16608   76.1   18.9   0.5   1.5   3.9   6.8   9.1   5.9   3.5   2.1   0.0   0.0   0.1   0.6   1.0   0.8   1.1  2.20  1.01  0.58  0.00  0.00   38.33   41.71    2.04    0.00    0.77
 1990 288    68     2     2     5.0   92.0   16607   73.2   18.7   0.5   1.4   3.4   6.4   8.6   5.8   3.5   2.1   0.0   0.0   0.1   0.6   0.9   0.8   1.1  2.21  1.01  0.58  0.00  0.00   38.94   42.21    2.12    0.00    0.77
 1990 289    69     2     2     5.1   89.1   16607   70.6   18.5   0.6   1.3   2.8   6.0   8.1   5.8   3.5   2.1   0.0   0.0   0.1   0.6   0.9   0.8   1.1  2.23  1.01  0.58  0.00  0.00   39.54   42.75    2.15    0.00    0.77
 1990 290    70     2     2     5.2   86.5   16606   68.2   18.3   0.6   1.2   2.4   5.7   7.6   5.8   3.5   2.2   0.0   0.0   0.1   0.5   0.8   0.8   1.0  2.24  1.01  0.58  0.00  0.00   40.14   43.36    2.16    0.00    0.77
 1990 291    71     2     2     5.2   85.3   16605   67.2   18.2   0.6   1.2   2.2   5.5   7.4   5.8   3.5   2.2   0.0   0.0   0.1   0.5   0.8   0.7   1.0  2.25  1.01  0.57  0.00  0.00   40.73   43.94    2.17    0.00    0.78
 1990 292    72     2     2     5.2   81.1   16605   63.2   17.9   0.5   0.9   1.6   4.9   6.7   5.8   3.6   2.2   0.0   0.0   0.1   0.5   0.8   0.7   0.9  2.26  1.01  0.57  0.00  0.00   41.33   44.53    2.18    0.00    0.78
 1990 293    73     2     2     5.2   78.3   16604   60.6   17.7   0.4   0.8   1.2   4.4   6.1   5.8   3.6   2.2   0.0   0.0   0.2   0.5   0.7   0.7   0.8  2.28  1.01  0.57  0.00  0.00   41.95   45.04    2.19    0.00    0.78
 1990 294    74     2     2     5.2   75.1   16604   57.6   17.5   0.5   0.7   0.9   3.9   5.4   5.8   3.6   2.2   0.0   0.0   0.1   0.5   0.7   0.6   0.8  2.29  1.02  0.57  0.00  0.00   42.58   45.65    2.20    0.00    0.78
 1990 295    75     2     2     5.2   70.8   16603   53.6   17.2   0.4   0.5   0.5   3.2   4.6   5.7   3.6   2.2   0.0   0.0   0.1   0.5   0.6   0.6   0.7  2.26  1.02  0.56  0.00  0.00   43.23   46.21    2.20    0.00    0.79
 1990 296    76     2     2     5.2   66.1   16602   49.5   16.6   0.4   0.4   0.4   2.7   4.0   5.3   3.6   2.2   0.0   0.0   0.1   0.5   0.6   0.6   0.7  2.16  1.02  0.56  0.00  0.00   43.89   46.78    2.21    0.00    0.79
 1990 297    77     2     2     5.2   62.7   16602   46.6   16.0   0.4   0.4   0.3   2.4   3.6   4.9   3.6   2.2   0.0   0.0   0.1   0.5   0.6   0.6   0.7  2.05  1.02  0.56  0.00  0.00   44.55   47.34    2.22    0.00    0.80
 1990 298    78     2     2     5.2   59.0   16601   43.6   15.4   0.4   0.4   0.3   2.2   3.2   4.5   3.6   2.2   0.0   0.0   0.1   0.5   0.6   0.6   0.6  1.91  1.02  0.55  0.00  0.00   45.19   47.95    2.22    0.00    0.80
 1990 299    79     2     2     5.2   56.3   16600   41.5   14.9   0.4   0.4   0.3   2.0   2.9   4.2   3.6   2.2   0.0   0.0   0.1   0.5   0.6   0.5   0.6  1.80  1.02  0.55  0.00  0.00   45.81   48.55    2.22    0.00    0.80
 1990 300    80     2     2     5.2   50.5   16600   36.8   13.8   0.4   0.4   0.3   1.5   2.3   3.5   3.6   2.2   0.0   0.0   0.1   0.5   0.6   0.5   0.6  1.58  1.02  0.55  0.00  0.00   46.42   49.14    2.22    0.00    0.80
 1990 301    81     2     2     5.2   45.9   16599   33.0   12.9   0.4   0.4   0.3   1.2   1.8   2.9   3.6   2.2   0.0   0.0   0.1   0.4   0.6   0.5   0.6  1.40  1.02  0.55  0.00  0.00   47.01   49.72    2.23    0.00    0.81
 1990 302    82     2     2     5.2   43.5   16599   31.0   12.5   0.4   0.4   0.3   1.1   1.6   2.6   3.6   2.2   0.0   0.0   0.1   0.4   0.6   0.5   0.5  1.30  1.02  0.54  0.00  0.00   47.60   50.26    2.23    0.00    0.81
 1990 303    83     2     2     5.2   40.1   16598   28.2   11.9   0.2   0.4   0.3   0.8   1.3   2.2   3.7   2.3   0.0   0.0   0.1   0.4   0.6   0.5   0.5  1.16  1.02  0.54  0.00  0.00   48.20   50.82    2.23    0.00    0.81
 1990 304    84     2     2     5.2   37.4   16597   25.8   11.5   0.4   0.3   0.3   0.7   1.0   1.8   3.7   2.3   0.0   0.0   0.1   0.5   0.6   0.5   0.5  1.05  1.03  0.54  0.00  0.00   48.88   51.28    2.23    0.00    0.81
 1990 305    85     2     2     5.2   35.2   16597   24.1   11.1   0.4   0.4   0.3   0.5   0.8   1.5   3.7   2.3   0.0   0.0   0.1   0.5   0.6   0.5   0.5  0.96  1.03  0.54  0.00  0.00   49.55   51.87    2.24    0.00    0.82
 1990 306    86     2     2     5.2   33.4   16596   22.6   10.9   0.3   0.4   0.3   0.4   0.7   1.2   3.7   2.3   0.0   0.0   0.2   0.5   0.6   0.5   0.5  0.89  1.03  0.54  0.00  0.00   50.21   52.37    2.24    0.00    0.82
 1990 307    87     2     2     5.2   32.1   16595   21.6   10.5   0.5   0.4   0.3   0.4   0.6   1.0   3.7   2.3   0.0   0.0   0.1   0.5   0.6   0.5   0.5  0.83  1.03  0.53  0.00  0.00   50.87   53.02    2.24    0.00    0.82
 1990 308    88     2     2     5.2   30.8   16595   20.5   10.3   0.1   0.4   0.4   0.3   0.5   0.9   3.7   2.3   0.0   0.0   0.1   0.5   0.6   0.5   0.5  0.78  1.03  0.53  0.00  0.00   51.53   53.56    2.24    0.00    0.82
 1990 309    89     2     2     5.2   30.0   16594   19.4   10.5   0.1   0.3   0.3   0.3   0.4   0.7   3.7   2.3   0.0   0.0   0.2   0.6   0.7   0.5   0.5  0.74  1.03  0.53  0.00  0.00   52.22   53.82    2.24    0.00    0.83
 1990 310    90     2     2     5.2   29.4   16593   19.1   10.3   0.3   0.3   0.3   0.3   0.3   0.6   3.7   2.3   0.0   0.0   0.1   0.6   0.7   0.5   0.5  0.71  1.01  0.53  0.00  0.00   52.88   54.29    2.24    0.00    0.83
 1990 311    91     2     2     5.2   28.9   16593   18.9    9.9   0.4   0.4   0.3   0.3   0.3   0.5   3.8   2.3   0.0   0.0   0.1   0.5   0.6   0.5   0.5  0.68  0.99  0.52  0.00  0.00   53.52   54.88    2.24    0.00    0.83
 1990 312    92     2     2     5.2   28.4   16592   18.6    9.8   0.3   0.4   0.3   0.3   0.3   0.4   3.8   2.3   0.0   0.0   0.2   0.5   0.6   0.5   0.5  0.66  0.97  0.52  0.00  0.00   54.15   55.36    2.25    0.00    0.83
 1990 313    93     2     2     5.2   28.1   16592   18.4    9.6   0.4   0.4   0.3   0.3   0.3   0.3   3.8   2.3   0.0   0.0   0.1   0.5   0.6   0.5   0.5  0.64  0.95  0.52  0.00  0.00   54.72   55.90    2.25    0.00    0.83
 1990 314    94     2     2     5.2   27.7   16591   18.3    9.5   0.4   0.4   0.3   0.3   0.3   0.3   3.9   2.3   0.0   0.0   0.1   0.5   0.6   0.5   0.5  0.63  0.93  0.52  0.00  0.00   55.29   56.39    2.25    0.00    0.84
 1990 315    95     2     2     5.2   27.6   16591   18.2    9.4   0.4   0.4   0.3   0.3   0.3   0.3   3.9   2.3   0.0   0.0   0.1   0.5   0.6   0.5   0.5  0.61  0.92  0.52  0.00  0.00   55.87   56.89    2.25    0.00    0.84
 1990 316    96     2     2     5.2   27.6   16590   18.3    9.3   0.4   0.4   0.3   0.3   0.3   0.3   3.9   2.3   0.0   0.0   0.1   0.5   0.6   0.5   0.5  0.60  0.90  0.51  0.00  0.00   56.49   57.42    2.25    0.00    0.84
 1990 317    97     2     2     5.2   27.6   16589   18.4    9.2   0.4   0.4   0.3   0.3   0.3   0.3   3.9   2.3   0.0   0.0   0.1   0.5   0.6   0.5   0.5  0.60  0.88  0.51  0.00  0.00   57.10   57.95    2.25    0.00    0.84
 1990 318    98     2     2     5.2   27.3   16589   18.3    9.1   0.4   0.4   0.3   0.3   0.3   0.3   3.9   2.3   0.0   0.0   0.1   0.5   0.6   0.5   0.5  0.59  0.85  0.51  0.00  0.00   57.77   58.55    2.25    0.00    0.84
 1990 319    99     2     2     5.2   26.1   16588   17.3    8.9   0.4   0.4   0.3   0.3   0.3   0.3   3.4   2.4   0.0   0.0   0.1   0.5   0.6   0.5   0.5  0.58  0.80  0.51  0.00  0.00   58.47   59.21    2.25    0.00    0.85
 1990 320   100     2     2     5.2   25.0   16587   16.3    8.7   0.1   0.3   0.4   0.3   0.3   0.3   3.0   2.4   0.0   0.0   0.1   0.5   0.6   0.5   0.5  0.58  0.75  0.51  0.00  0.00   59.16   59.84    2.25    0.00    0.85
 1990 321   101     2     2     5.2   24.1   16587   15.1    9.0   0.2   0.3   0.3   0.3   0.3   0.3   2.7   2.4   0.0   0.0   0.2   0.6   0.7   0.5   0.5  0.57  0.70  0.50  0.00  0.00   59.90   60.07    2.25    0.00    0.85
 1990 322   102     2     2     5.2   23.5   16586   14.5    9.0   0.5   0.3   0.3   0.3   0.3   0.3   2.4   2.4   0.0   0.0   0.1   0.7   0.7   0.6   0.5  0.57  0.67  0.50  0.00  0.00   60.66   60.51    2.25    0.00    0.85
 1990 323   103     2     2     5.2   22.7   16585   14.1    8.6   0.3   0.4   0.3   0.3   0.3   0.3   2.1   2.4   0.0   0.0   0.1   0.5   0.6   0.5   0.5  0.57  0.64  0.50  0.00  0.00   61.41   61.15    2.25    0.00    0.85
 1990 324   104     2     2     5.2   22.0   16585   13.5    8.5   0.4   0.4   0.3   0.3   0.3   0.3   1.8   2.4   0.0   0.0   0.1   0.5   0.6   0.5   0.5  0.57  0.61  0.50  0.00  0.00   62.15   61.78    2.25    0.00    0.86
 1990 325   105     2     2     5.2   21.4   16584   12.9    8.4   0.4   0.4   0.3   0.3   0.3   0.3   1.6   2.4   0.0   0.0   0.1   0.5   0.6   0.5   0.5  0.57  0.59  0.50  0.00  0.00   62.92   62.41    2.25    0.00    0.86
 1990 326   106     2     2     5.2   20.9   16583   12.5    8.4   0.4   0.4   0.3   0.3   0.3   0.3   1.4   2.4   0.0   0.0   0.1   0.5   0.6   0.5   0.5  0.57  0.57  0.49  0.00  0.00   63.73   63.08    2.25    0.00    0.86
 1990 327   107     2     2     5.2   20.5   16582   12.2    8.3   0.4   0.4   0.3   0.3   0.3   0.3   1.3   2.4   0.0   0.0   0.1   0.5   0.6   0.5   0.5  0.56  0.55  0.48  0.00  0.00   64.55   63.78    2.25    0.00    0.86
 1990 328   108     2     2     5.2   20.1   16582   11.9    8.2   0.4   0.4   0.3   0.3   0.3   0.3   1.1   2.4   0.0   0.0   0.1   0.5   0.6   0.5   0.5  0.56  0.54  0.47  0.00  0.00   65.35   64.47    2.25    0.00    0.86
 1990 329   109     2     2     5.2   19.7   16581   11.6    8.1   0.4   0.4   0.3   0.3   0.3   0.3   1.0   2.4   0.0   0.0   0.1   0.5   0.6   0.5   0.5  0.56  0.53  0.46  0.00  0.00   66.12   65.13    2.25    0.00    0.87
 1990 330   110     2     2     5.2   19.4   16580   11.3    8.0   0.3   0.4   0.4   0.3   0.3   0.3   0.9   2.5   0.0   0.0   0.1   0.5   0.6   0.5   0.5  0.56  0.52  0.45  0.00  0.00   66.87   65.79    2.25    0.00    0.87
 1990 331   111     2     2     5.2   19.0   16579   10.8    8.2   0.3   0.3   0.3   0.3   0.3   0.3   0.8   2.4   0.0   0.0   0.2   0.6   0.6   0.5   0.5  0.56  0.51  0.44  0.00  0.00   67.61   66.21    2.25    0.00    0.87
 1990 332   112     2     2     5.2   18.6   16579   10.6    8.0   0.6   0.4   0.3   0.3   0.3   0.3   0.7   2.3   0.0   0.0   0.1   0.5   0.6   0.5   0.5  0.56  0.50  0.43  0.00  0.00   68.31   66.95    2.25    0.00    0.87
 1990 333   113     2     2     5.2   17.9   16578   10.0    7.9   0.3   0.4   0.3   0.3   0.3   0.3   0.6   2.2   0.0   0.0   0.1   0.5   0.6   0.5   0.5  0.56  0.49  0.42  0.00  0.00   68.99   67.51    2.25    0.00    0.88
 1990 334   114     2     2     5.2   17.4   16578    9.5    7.8   0.4   0.4   0.3   0.3   0.3   0.3   0.6   2.1   0.0   0.0   0.1   0.5   0.6   0.5   0.5  0.55  0.48  0.41  0.00  0.00   69.65   68.10    2.25    0.00    0.88
 1990 335   115     2     2     5.2   16.9   16577    9.1    7.8   0.4   0.4   0.3   0.3   0.3   0.3   0.5   1.9   0.0   0.0   0.1   0.5   0.6   0.5   0.5  0.55  0.48  0.40  0.00  0.00   70.30   68.66    2.25    0.00    0.88
 1990 336   116     2     2     5.2   16.4   16576    8.7    7.7   0.4   0.4   0.3   0.3   0.3   0.3   0.5   1.8   0.0   0.0   0.1   0.5   0.6   0.5   0.5  0.55  0.47  0.39  0.00  0.00   70.93   69.23    2.25    0.00    0.88
 1990 337   117     2     2     5.2   16.0   16576    8.3    7.6   0.3   0.4   0.3   0.3   0.3   0.3   0.4   1.7   0.0   0.0   0.1   0.5   0.6   0.5   0.5  0.55  0.46  0.38  0.00  0.00   71.56   69.79    2.25    0.00    0.88
 1990 338   118     2     2     5.2   15.6   16575    7.9    7.6   0.3   0.4   0.3   0.3   0.3   0.3   0.4   1.6   0.0   0.0   0.2   0.5   0.6   0.5   0.5  0.55  0.46  0.37  0.00  0.00   72.17   70.28    2.25    0.00    0.89
 1990 339   119     2     2     5.2   15.3   16575    7.8    7.5   0.5   0.4   0.3   0.3   0.3   0.3   0.3   1.5   0.0   0.0   0.1   0.5   0.6   0.5   0.5  0.55  0.45  0.36  0.00  0.00   72.77   70.90    2.25    0.00    0.89
 1990 340   120     2     2     5.2   14.9   16574    7.4    7.4   0.0   0.3   0.4   0.4   0.3   0.3   0.3   1.4   0.0   0.0   0.1   0.5   0.6   0.5   0.5  0.55  0.44  0.35  0.00  0.00   73.39   71.46    2.25    0.00    0.89
 1990 341   121     2     2     5.2   14.6   16573    6.8    7.8   0.0   0.1   0.2   0.2   0.3   0.3   0.3   1.4   0.0   0.0   0.2   0.6   0.7   0.5   0.5  0.54  0.44  0.35  0.00  0.00   74.06   71.68    2.25    0.00    0.89
 1990 342   122     2     2     5.2   14.6   16573    6.4    8.2   0.1   0.1   0.2   0.2   0.3   0.3   0.3   1.3   0.0   0.0   0.3   0.7   0.7   0.5   0.5  0.56  0.43  0.34  0.00  0.00   74.79   71.87    2.25    0.00    0.90
 1990 343   123     2     2     5.3   14.5   16572    6.3    8.2   0.6   0.2   0.2   0.2   0.3   0.2   0.3   1.2   0.0   0.0   0.0   0.7   0.7   0.6   0.5  0.57  0.42  0.33  0.00  0.00   75.55   72.31    2.25    0.00    0.90
 1990 344   124     2     2     6.3   13.3   16571    5.2    8.1   0.0   0.3   0.2   0.2   0.2   0.3   0.3   0.9   0.0   0.0   0.1   0.5   0.7   0.6   0.5  0.57  0.42  0.32  0.00  0.00   76.26   72.68    2.25    0.00    0.90
 1990 345   125     2     2     6.7   13.2   16571    4.7    8.4   0.0   0.3   0.2   0.2   0.2   0.2   0.2   0.7   0.0   0.0   0.2   0.6   0.8   0.6   0.6  0.58  0.43  0.32  0.00  0.00   76.90   72.77    2.26    0.00    0.90
 1990 346   126     2     2     6.8   13.2   16570    4.7    8.5   0.3   0.3   0.2   0.2   0.2   0.2   0.2   0.6   0.0   0.0   0.1   0.7   0.7   0.6   0.6  0.59  0.43  0.32  0.00  0.00   77.54   73.02    2.26    0.00    0.90
 1990 347   127     2     2     6.9   13.2   16569    4.7    8.5   0.4   0.3   0.2   0.2   0.2   0.2   0.2   0.6   0.0   0.0   0.1   0.7   0.7   0.6   0.6  0.59  0.44  0.32  0.00  0.00   78.17   73.21    2.27    0.00    0.91
 1990 348   128     2     2     6.9   13.1   16569    4.9    8.3   0.4   0.4   0.3   0.2   0.3   0.2   0.3   0.5   0.0   0.0   0.1   0.5   0.7   0.6   0.6  0.59  0.43  0.32  0.00  0.00   78.79   73.56    2.27    0.00    0.91
 1990 349   129     2     2     6.9   13.0   16568    5.1    8.0   0.4   0.4   0.3   0.3   0.3   0.2   0.3   0.5   0.0   0.0   0.1   0.5   0.6   0.6   0.6  0.58  0.43  0.31  0.00  0.00   79.42   74.10    2.27    0.00    0.91
 1990 350   130     2     2     6.9   12.9   16568    5.1    7.8   0.4   0.4   0.3   0.3   0.3   0.3   0.3   0.5   0.0   0.0   0.1   0.5   0.6   0.6   0.6  0.58  0.42  0.30  0.00  0.00   80.09   74.66    2.27    0.00    0.91
 1990 351   131     2     2     6.9   12.8   16567    5.1    7.7   0.4   0.4   0.3   0.3   0.3   0.3   0.3   0.5   0.0   0.0   0.1   0.5   0.6   0.5   0.5  0.58  0.42  0.30  0.00  0.00   80.80   75.23    2.27    0.00    0.92
 1990 352   132     2     2     6.9   12.7   16566    5.0    7.7   0.2   0.3   0.3   0.3   0.3   0.3   0.3   0.4   0.0   0.0   0.1   0.5   0.6   0.5   0.5  0.58  0.41  0.29  0.00  0.00   81.55   75.84    2.27    0.00    0.92
 1990 353   133     2     2     6.9   12.7   16566    4.6    8.1   0.2   0.3   0.3   0.3   0.3   0.3   0.3   0.4   0.0   0.0   0.2   0.6   0.7   0.6   0.6  0.58  0.41  0.28  0.00  0.00   82.31   76.01    2.27    0.00    0.92
 1990 354   134     2     2     6.9   12.9   16565    4.7    8.2   0.6   0.3   0.3   0.3   0.3   0.3   0.3   0.4   0.0   0.0   0.0   0.7   0.7   0.6   0.6  0.58  0.41  0.28  0.00  0.00   83.09   76.41    2.27    0.00    0.92
 1990 355   135     2     2     6.9   12.8   16564    4.9    7.9   0.3   0.5   0.3   0.3   0.3   0.3   0.3   0.4   0.0   0.0   0.1   0.5   0.6   0.6   0.6  0.58  0.40  0.27  0.00  0.00   83.88   76.99    2.27    0.00    0.93
 1990 356   136     2     2     6.9   12.7   16563    5.0    7.7   0.3   0.3   0.4   0.3   0.3   0.3   0.3   0.4   0.0   0.0   0.1   0.5   0.6   0.6   0.6  0.58  0.40  0.26  0.00  0.00   84.67   77.67    2.27    0.00    0.93
 1990 357   137     2     2     6.9   12.6   16563    4.4    8.2   0.3   0.3   0.3   0.3   0.3   0.3   0.3   0.4   0.0   0.0   0.2   0.6   0.7   0.6   0.6  0.59  0.40  0.26  0.00  0.00   85.42   77.81    2.27    0.00    0.93
 1990 358   138     2     2     6.9   12.8   16562    4.5    8.4   0.2   0.3   0.3   0.3   0.3   0.3   0.3   0.4   0.0   0.0   0.3   0.7   0.7   0.6   0.6  0.59  0.40  0.25  0.00  0.00   86.20   78.04    2.27    0.00    0.93
 1990 359   139     2     2     7.0   12.9   16561    4.3    8.7   0.3   0.3   0.3   0.3   0.2   0.2   0.3   0.3   0.0   0.0   0.4   0.7   0.8   0.6   0.6  0.59  0.40  0.24  0.00  0.00   86.95   78.20    2.27    0.00    0.94
 1990 360   140     2     2     7.0   13.1   16561    4.6    8.5   0.8   0.3   0.3   0.3   0.3   0.3   0.3   0.3   0.0   0.0   0.0   0.7   0.8   0.6   0.6  0.59  0.40  0.24  0.00  0.00   87.71   78.69    2.27    0.00    0.94
 1990 361   141     2     2     7.0   12.7   16560    4.6    8.2   0.3   0.5   0.3   0.3   0.3   0.3   0.3   0.3   0.0   0.0   0.1   0.5   0.7   0.6   0.6  0.59  0.40  0.23  0.00  0.00   88.49   79.13    2.27    0.00    0.95
 1990 362   142     2     2     7.0   12.6   16559    4.8    7.8   0.5   0.4   0.3   0.3   0.3   0.3   0.3   0.3   0.0   0.0   0.1   0.5   0.6   0.6   0.6  0.59  0.39  0.23  0.00  0.00   89.30   79.88    2.27    0.00    0.95
 1990 363   143     2     2     7.0   12.3   16558    4.7    7.6   0.4   0.4   0.3   0.3   0.3   0.3   0.3   0.3   0.0   0.0   0.1   0.5   0.6   0.6   0.6  0.59  0.39  0.22  0.00  0.00   90.09   80.51    2.27    0.00    0.95
 1990 364   144     2     2     7.0   12.2   16558    4.7    7.6   0.4   0.4   0.3   0.3   0.3   0.3   0.3   0.3   0.0   0.0   0.1   0.5   0.6   0.6   0.6  0.59  0.39  0.22  0.00  0.00   90.88   81.14    2.27    0.00    0.95
 1990 365   145     2     2     7.0   12.1   16557    4.6    7.5   0.4   0.4   0.3   0.3   0.3   0.3   0.3   0.3   0.0   0.0   0.1   0.5   0.6   0.5   0.5  0.59  0.39  0.22  0.00  0.00   91.67   81.77    2.27    0.00    0.96
 1991 001   146     2     2     7.0   12.1   16556    4.6    7.4   0.4   0.4   0.3   0.3   0.3   0.3   0.3   0.3   0.0   0.0   0.1   0.5   0.6   0.5   0.5  0.59  0.39  0.21  0.00  0.00   92.46   82.38    2.27    0.00    0.96
 1991 002   147     2     2     7.0   12.0   16556    4.6    7.4   0.4   0.4   0.3   0.3   0.3   0.3   0.3   0.3   0.0   0.0   0.1   0.5   0.6   0.5   0.5  0.59  0.39  0.21  0.00  0.00   93.23   82.99    2.27    0.00    0.96
 1991 003   148     2     2     7.0   12.0   16555    4.6    7.4   0.4   0.4   0.3   0.3   0.3   0.3   0.3   0.3   0.0   0.0   0.1   0.5   0.6   0.5   0.5  0.59  0.39  0.20  0.00  0.00   94.03   83.62    2.27    0.00    0.96
 1991 004   149     2     2     7.0   12.0   16554    4.6    7.3   0.4   0.4   0.3   0.3   0.3   0.3   0.3   0.3   0.0   0.0   0.1   0.4   0.6   0.5   0.5  0.59  0.38  0.20  0.00  0.00   94.84   84.28    2.27    0.00    0.97
 1991 005   150     2     2     7.0   11.9   16553    4.6    7.3   0.4   0.4   0.3   0.3   0.3   0.3   0.3   0.3   0.0   0.0   0.1   0.4   0.6   0.5   0.5  0.59  0.38  0.20  0.00  0.00   95.63   84.93    2.27    0.00    0.97
 1991 006   151     2     2     7.0   11.8   16553    4.6    7.2   0.4   0.4   0.3   0.3   0.3   0.3   0.3   0.3   0.0   0.0   0.1   0.4   0.6   0.5   0.5  0.59  0.38  0.19  0.00  0.00   96.39   85.57    2.27    0.00    0.97
 1991 007   152     2     2     7.0   11.7   16552    4.6    7.1   0.4   0.4   0.3   0.3   0.3   0.3   0.3   0.3   0.0   0.0   0.1   0.4   0.6   0.5   0.5  0.58  0.38  0.19  0.00  0.00   97.11   86.19    2.27    0.00    0.97
 1991 008   153     2     2     7.0   11.6   16551    4.6    7.0   0.2   0.4   0.4   0.3   0.3   0.3   0.3   0.3   0.0   0.0   0.1   0.4   0.6   0.5   0.5  0.58  0.37  0.19  0.00  0.00   97.81   86.81    2.27    0.00    0.97
 1991 009   154     2     2     7.0   11.7   16551    4.5    7.2   0.3   0.3   0.3   0.3   0.3   0.3   0.3   0.3   0.0   0.0   0.1   0.5   0.6   0.5   0.5  0.58  0.37  0.18  0.00  0.00   98.64   87.30    2.27    0.00    0.98
 1991 010   155     2     2     7.0   11.9   16550    4.7    7.1   0.4   0.5   0.3   0.3   0.3   0.3   0.3   0.3   0.0   0.0   0.1   0.5   0.6   0.5   0.5  0.58  0.37  0.18  0.00  0.00   99.46   88.03    2.27    0.00    0.98
 1991 011   156     2     2     7.0   11.8   16549    4.5    7.3   0.4   0.3   0.3   0.3   0.3   0.3   0.3   0.3   0.0   0.0   0.1   0.6   0.6   0.5   0.5  0.58  0.37  0.18  0.00  0.00  100.29   88.55    2.27    0.00    0.98
 1991 012   157     2     2     7.0   11.8   16548    4.7    7.1   0.4   0.5   0.3   0.3   0.3   0.3   0.3   0.3   0.0   0.0   0.1   0.5   0.6   0.5   0.5  0.58  0.36  0.17  0.00  0.00  101.10   89.31    2.27    0.00    0.98
 1991 013   158     2     2     7.0   11.7   16548    4.6    7.0   0.4   0.4   0.3   0.3   0.3   0.3   0.3   0.3   0.0   0.0   0.1   0.5   0.6   0.5   0.5  0.57  0.36  0.17  0.00  0.00  101.87   89.95    2.27    0.00    0.99
 1991 014   159     2     2     7.0   11.6   16547    4.6    7.0   0.4   0.4   0.3   0.3   0.3   0.3   0.3   0.3   0.0   0.0   0.1   0.5   0.6   0.5   0.5  0.57  0.36  0.17  0.00  0.00  102.59   90.55    2.27    0.00    0.99
 1991 015   160     2     2     7.0   11.5   16546    4.6    6.9   0.4   0.4   0.3   0.3   0.3   0.3   0.3   0.3   0.0   0.0   0.1   0.5   0.6   0.5   0.5  0.57  0.36  0.17  0.00  0.00  103.28   91.16    2.27    0.00    0.99
 1991 016   161     2     2     7.0   11.4   16546    4.6    6.8   0.4   0.4   0.3   0.3   0.3   0.3   0.3   0.3   0.0   0.0   0.1   0.4   0.6   0.5   0.5  0.57  0.35  0.16  0.00  0.00  103.94   91.75    2.27    0.00    0.99
 1991 017   162     2     2     7.0   11.3   16545    4.5    6.8   0.2   0.4   0.4   0.3   0.3   0.3   0.3   0.3   0.0   0.0   0.1   0.4   0.6   0.5   0.5  0.57  0.35  0.16  0.00  0.00  104.56   92.31    2.27    0.00    0.99
 1991 018   163     2     2     7.0   11.3   16545    4.4    6.9   0.3   0.3   0.3   0.3   0.3   0.3   0.3   0.3   0.0   0.0   0.1   0.5   0.6   0.5   0.5  0.56  0.35  0.16  0.00  0.00  105.27   92.72    2.27    0.00    1.00
 1991 019   164     2     2     7.0   11.5   16544    4.6    6.8   0.4   0.4   0.3   0.3   0.3   0.3   0.3   0.3   0.0   0.0   0.1   0.5   0.6   0.5   0.5  0.56  0.34  0.16  0.00  0.00  105.98   93.34    2.27    0.00    1.00
 1991 020   165     2     2     7.0   11.4   16543    4.6    6.8   0.4   0.4   0.3   0.3   0.3   0.3   0.3   0.3   0.0   0.0   0.1   0.5   0.6   0.5   0.5  0.56  0.34  0.15  0.00  0.00  106.69   93.94    2.27    0.00    1.00
 1991 021   166     2     2     7.0   12.1   16543    5.2    6.9   0.3   0.5   0.4   0.4   0.4   0.3   0.3   0.3   0.0   0.0   0.1   0.5   0.6   0.5   0.5  0.57  0.34  0.15  0.00  0.00  107.37   94.53    2.27    0.00    1.00
 1991 022   167     2     2     7.0   12.8   16542    5.4    7.5   0.2   0.5   0.5   0.4   0.4   0.3   0.3   0.3   0.0   0.0   0.2   0.6   0.8   0.5   0.5  0.58  0.34  0.15  0.00  0.00  108.14   94.74    2.27    0.00    1.01

*DSSAT Cropping System Model Ver. 4.0.2.000               Aug 11, 2016; 20:13:27

*RUN   2        : UYMZ                    
 MODEL          : MZCER040 - Maize           
 EXPERIMENT     : UYMZ0148 MZ    late to create DSS                             
 TREATMENT  1   : UYMZ                    

@YEAR DOY   DAS  NAPC  NI#M    NLCC   NIAD    NOAD   NITD   NHTD  NI1D  NI2D  NI3D  NI4D  NI5D  NI6D  NI7D  NI8D  NI9D  NI10  NH1D  NH2D  NH3D  NH4D  NH5D  NH6D  NH7D  NH8D  NH9D  NH10    NMNC    NITC    NDNC    NIMC    AMLC
 1991 220     0     0     0     0.0   99.2   16646   76.1   23.0  15.7  15.2  15.1   8.6   4.6   0.0   0.1   0.1   0.0   0.0   0.8   1.4   1.5   1.5   1.5  1.50  1.47  1.46  0.00  0.00    0.41    1.33    0.00    0.00    0.00
 1991 221     1     0     0     0.0   99.6   16645   77.3   22.3  16.1  15.4  15.2   8.7   4.6   0.0   0.1   0.1   0.0   0.0   0.5   1.2   1.4   1.4   1.4  1.51  1.43  1.41  0.00  0.00    0.84    2.48    0.00    0.00    0.00
 1991 222     2     0     0     0.0  100.0   16645   78.3   21.7  16.4  15.5  15.3   8.7   4.7   0.1   0.1   0.2   0.0   0.0   0.3   1.1   1.4   1.4   1.4  1.51  1.40  1.37  0.00  0.00    1.28    3.51    0.00    0.00    0.00
 1991 223     3     0     0     0.0  100.5   16644   79.3   21.2   5.8  16.0  18.8   8.8   4.7   0.1   0.2   0.2   0.0   0.0   0.2   1.1   1.4   1.3   1.3  1.51  1.37  1.33  0.00  0.00    1.71    4.45    0.00    0.00    0.00
 1991 224     4     2     2     0.0  102.9   16644   81.0   21.8   7.7  15.4  19.2   8.9   4.8   0.1   0.2   0.2   0.0   0.0   1.9   1.1   1.4   1.3   1.3  1.51  1.34  1.29  0.00  0.00    2.14    5.19    0.00    0.00    0.06
 1991 225     5     2     2     0.0  103.2   16643   82.2   21.0   8.7  15.3  19.4   9.1   4.8   0.1   0.3   0.3   0.0   0.0   0.8   1.1   1.4   1.2   1.3  1.52  1.31  1.25  0.00  0.00    2.58    6.41    0.00    0.00    0.14
 1991 226     6     2     2     0.0  103.6   16643   83.3   20.3   9.1  15.3  19.5   9.2   4.9   0.1   0.3   0.3   0.0   0.0   0.3   1.0   1.3   1.2   1.2  1.52  1.28  1.22  0.00  0.00    3.02    7.46    0.00    0.00    0.22
 1991 227     7     2     2     0.0  103.9   16643   84.2   19.7   9.2  15.5  19.5   9.3   4.9   0.1   0.3   0.4   0.0   0.0   0.0   1.0   1.3   1.2   1.2  1.52  1.26  1.18  0.00  0.00    3.50    8.39    0.00    0.00    0.33
 1991 228     8     2     2     0.0  104.5   16642   85.1   19.4   9.3  15.6  19.6   9.5   5.0   0.2   0.4   0.4   0.0   0.0   0.1   0.9   1.3   1.1   1.2  1.52  1.23  1.15  0.00  0.00    4.05    9.28    0.00    0.00    0.33
 1991 229     9     2     2     0.0  105.1   16641   86.1   19.0   9.4  15.8  19.6   9.6   5.0   0.2   0.4   0.4   0.0   0.0   0.1   0.8   1.3   1.1   1.1  1.53  1.20  1.11  0.00  0.00    4.66   10.27    0.00    0.00    0.35
 1991 230    10     2     2     0.0  105.7   16641   87.1   18.6   9.6  15.9  19.7   9.7   5.1   0.2   0.5   0.5   0.0   0.0   0.1   0.7   1.3   1.1   1.1  1.53  1.17  1.08  0.00  0.00    5.32   11.30    0.00    0.00    0.37
 1991 231    11     2     2     0.0  106.4   16640   88.1   18.2   9.8  16.1  19.8   9.9   5.2   0.2   0.5   0.5   0.0   0.0   0.1   0.7   1.3   1.0   1.0  1.53  1.15  1.04  0.00  0.00    6.01   12.34    0.00    0.00    0.39
 1991 232    12     2     2     0.0  106.9   16639   89.0   17.9   9.9  16.1  19.9  10.0   5.2   0.2   0.5   0.6   0.0   0.0   0.1   0.6   1.2   1.0   1.0  1.54  1.12  1.01  0.00  0.00    6.71   13.34    0.00    0.00    0.41
 1991 233    13     2     2     0.0  107.5   16639   89.9   17.6  10.1  16.2  20.0  10.1   5.3   0.2   0.6   0.6   0.0   0.0   0.1   0.6   1.2   0.9   1.0  1.54  1.10  0.98  0.00  0.00    7.39   14.31    0.00    0.00    0.43
 1991 234    14     2     2     0.0  108.2   16638   90.9   17.4  10.2  16.3  20.1  10.2   5.3   0.3   0.6   0.6   0.0   0.0   0.1   0.6   1.2   0.9   1.0  1.54  1.07  0.95  0.00  0.00    8.08   15.25    0.00    0.00    0.43
 1991 235    15     2     2     0.0  108.9   16637   91.8   17.1  10.5  16.4  20.2  10.3   5.4   0.3   0.6   0.7   0.0   0.0   0.1   0.5   1.2   0.9   0.9  1.54  1.05  0.92  0.00  0.00    8.74   16.19    0.00    0.00    0.43
 1991 236    16     2     2     0.0  109.5   16637   92.7   16.8  10.7  16.4  20.3  10.4   5.4   0.3   0.7   0.7   0.0   0.0   0.1   0.5   1.2   0.9   0.9  1.55  1.03  0.89  0.00  0.00    9.39   17.09    0.00    0.00    0.44
 1991 237    17     2     2     0.0  110.1   16636   93.5   16.6  10.9  16.5  20.4  10.5   5.5   0.3   0.7   0.7   0.0   0.0   0.1   0.5   1.2   0.8   0.9  1.55  1.00  0.87  0.00  0.00   10.02   17.94    0.00    0.00    0.44
 1991 238    18     2     2     0.0  110.7   16635   94.3   16.4  11.1  16.5  20.5  10.6   5.5   0.3   0.7   0.8   0.0   0.0   0.1   0.5   1.2   0.8   0.9  1.55  0.98  0.84  0.00  0.00   10.63   18.78    0.00    0.00    0.44
 1991 239    19     2     2     0.0  111.2   16635   95.1   16.2  11.3  16.6  20.6  10.7   5.6   0.4   0.8   0.8   0.0   0.0   0.1   0.4   1.2   0.8   0.8  1.55  0.96  0.82  0.00  0.00   11.20   19.55    0.00    0.00    0.44
 1991 240    20     2     2     0.0  111.7   16634   95.8   16.0  11.4  16.6  20.7  10.8   5.6   0.4   0.8   0.8   0.0   0.0   0.1   0.4   1.1   0.8   0.8  1.56  0.94  0.79  0.00  0.00   11.73   20.25    0.00    0.00    0.45
 1991 241    21     2     2     0.0  112.1   16634   96.3   15.8  11.6  16.6  20.7  10.8   5.6   0.4   0.8   0.8   0.0   0.0   0.1   0.4   1.1   0.8   0.8  1.56  0.93  0.77  0.00  0.00   12.24   20.94    0.00    0.00    0.45
 1991 242    22     2     2     0.0  112.4   16633   96.8   15.6  11.7  16.5  20.8  10.9   5.7   0.4   0.9   0.9   0.0   0.0   0.1   0.4   1.1   0.8   0.8  1.56  0.91  0.75  0.00  0.00   12.76   21.62    0.00    0.00    0.45
 1991 243    23     2     2     0.0  112.6   16633   97.1   15.5  11.8  16.4  20.8  11.0   5.7   0.4   0.9   0.9   0.0   0.0   0.1   0.4   1.1   0.8   0.8  1.56  0.89  0.73  0.00  0.00   13.27   22.29    0.00    0.00    0.45
 1991 244    24     2     2     0.0  112.7   16632   97.4   15.3   8.6  17.9  20.8  11.0   5.7   0.5   0.9   0.9   0.0   0.0   0.1   0.4   1.1   0.7   0.8  1.57  0.87  0.71  0.00  0.00   13.79   22.95    0.00    0.00    0.45
 1991 245    25     2     2     0.0  112.9   16632   97.7   15.2   8.5  17.7  21.0  11.1   5.8   0.5   0.9   0.9   0.0   0.0   0.1   0.4   1.1   0.7   0.8  1.57  0.86  0.69  0.00  0.00   14.33   23.60    0.00    0.00    0.46
 1991 246    26     2     2     0.0  113.4   16631   98.3   15.1   8.5  17.5  21.1  11.2   5.8   0.5   1.0   1.0   0.0   0.0   0.1   0.4   1.1   0.7   0.7  1.57  0.84  0.67  0.00  0.00   14.86   24.24    0.00    0.00    0.46
 1991 247    27     2     2     0.0  113.5   16631   98.5   15.0   8.5  17.3  21.2  11.2   5.8   0.5   1.0   1.0   0.0   0.0   0.1   0.5   1.1   0.7   0.7  1.57  0.83  0.65  0.00  0.00   15.39   24.87    0.00    0.00    0.46
 1991 248    28     2     2     0.0  113.3   16630   98.5   14.9   8.5  17.1  21.1  11.3   5.9   0.5   1.0   1.0   0.0   0.0   0.1   0.5   1.1   0.7   0.7  1.57  0.81  0.63  0.00  0.00   15.93   25.51    0.00    0.00    0.47
 1991 249    29     2     2     0.0  113.1   16630   98.3   14.8   8.5  16.9  20.9  11.4   5.9   0.5   1.0   1.0   0.0   0.0   0.1   0.5   1.0   0.7   0.7  1.58  0.80  0.62  0.00  0.00   16.51   26.19    0.00    0.00    0.47
 1991 250    30     2     2     0.0  113.1   16629   98.5   14.6   8.3  17.0  20.8  11.4   5.9   0.6   1.1   1.0   0.0   0.0   0.1   0.5   1.0   0.7   0.7  1.58  0.79  0.60  0.00  0.00   17.11   26.90    0.00    0.00    0.47
 1991 251    31     2     2     0.0  112.9   16628   98.4   14.6   7.7  17.0  20.7  11.5   6.0   0.6   1.1   1.1   0.0   0.0   0.2   0.5   1.0   0.7   0.7  1.58  0.77  0.58  0.00  0.00   17.72   27.55    0.00    0.00    0.47
 1991 252    32     2     2     0.0  112.9   16628   98.5   14.4   7.7  16.9  20.6  11.5   6.0   0.6   1.1   1.1   0.0   0.0   0.1   0.5   1.0   0.7   0.7  1.58  0.76  0.57  0.00  0.00   18.31   28.27    0.00    0.00    0.51
 1991 253    33     2     2     0.0  112.6   16627   98.2   14.3   7.7  16.7  20.4  11.6   6.0   0.6   1.1   1.1   0.0   0.0   0.1   0.5   1.0   0.7   0.7  1.58  0.75  0.55  0.00  0.00   18.87   28.89    0.00    0.00    0.53
 1991 254    34     2     2     0.0  112.2   16627   97.9   14.2   7.6  16.5  20.2  11.6   6.1   0.6   1.2   1.1   0.0   0.0   0.1   0.5   1.0   0.7   0.7  1.59  0.73  0.54  0.00  0.00   19.40   29.48    0.00    0.00    0.54
 1991 255    35     2     2     0.0  111.5   16626   97.4   14.1   7.5  16.3  19.9  11.7   6.1   0.6   1.2   1.1   0.0   0.0   0.1   0.5   1.0   0.6   0.7  1.59  0.72  0.53  0.00  0.00   19.91   30.08    0.00    0.00    0.56
 1991 256    36     2     2     0.0  110.7   16626   96.7   14.0   7.4  16.0  19.5  11.7   6.1   0.7   1.2   1.2   0.0   0.0   0.1   0.5   1.0   0.6   0.7  1.59  0.71  0.51  0.00  0.00   20.45   30.71    0.00    0.00    0.57
 1991 257    37     2     2     0.0  109.8   16625   95.9   13.9   7.4  15.7  19.2  11.7   6.2   0.7   1.2   1.2   0.0   0.0   0.1   0.4   1.0   0.6   0.7  1.59  0.70  0.50  0.00  0.00   21.04   31.40    0.00    0.00    0.58
 1991 258    38     2     2     0.0  108.6   16624   94.9   13.7   2.4  11.3  20.9  13.5   6.2   0.7   1.3   1.2   0.0   0.0   0.1   0.4   0.9   0.6   0.6  1.60  0.69  0.49  0.00  0.00   21.62   32.09    0.00    0.00    0.58
 1991 259    39     2     2     0.0  108.3   16624   94.4   14.0   2.2  10.9  20.2  14.0   6.2   0.7   1.3   1.2   0.0   0.0   0.2   0.5   1.0   0.6   0.6  1.60  0.68  0.48  0.00  0.00   22.25   32.45    0.00    0.00    0.60
 1991 260    40     2     2     0.0  108.4   16623   94.3   14.1   1.7   9.3  19.1  14.8   7.4   0.7   1.3   1.2   0.0   0.0   0.1   0.6   1.1   0.6   0.6  1.60  0.67  0.46  0.00  0.00   22.88   32.90    0.00    0.00    0.63
 1991 261    41     2     2     1.3  106.1   16623   91.8   14.3   0.5   4.7  13.1  12.5   9.6   3.6   1.7   1.6   0.0   0.0   0.1   0.7   1.2   0.6   0.6  1.60  0.66  0.45  0.00  0.00   23.46   33.19    0.00    0.00    0.65
 1991 262    42     2     2     2.0  104.8   16622   90.1   14.7   0.6   4.5  12.5  12.0   9.5   3.7   1.8   1.6   0.0   0.0   0.1   0.8   1.2   0.7   0.7  1.62  0.67  0.45  0.00  0.00   24.00   33.34    0.00    0.00    0.68
 1991 263    43     2     2     2.4  103.3   16622   88.5   14.8   0.7   4.4  11.9  11.6   9.4   3.7   1.9   1.6   0.0   0.0   0.1   0.7   1.3   0.7   0.7  1.63  0.67  0.45  0.00  0.00   24.54   33.62    0.06    0.00    0.69
 1991 264    44     2     2     2.6  101.9   16621   87.1   14.9   0.9   4.3  11.5  11.2   9.3   3.7   1.9   1.6   0.0   0.0   0.1   0.7   1.2   0.7   0.7  1.65  0.68  0.45  0.00  0.00   25.12   34.08    0.06    0.00    0.71
 1991 265    45     2     2     2.7  100.6   16620   85.7   14.9   1.0   4.2  10.9  11.0   9.3   3.8   2.0   1.6   0.0   0.0   0.1   0.6   1.2   0.7   0.7  1.66  0.68  0.45  0.00  0.00   25.72   34.55    0.08    0.00    0.71
 1991 266    46     2     2     2.8   98.6   16620   83.7   14.9   1.1   4.0  10.2  10.7   9.3   3.8   2.0   1.6   0.0   0.0   0.1   0.6   1.1   0.7   0.7  1.68  0.69  0.45  0.00  0.00   26.31   35.03    0.10    0.00    0.72
 1991 267    47     2     2     2.8   97.1   16619   82.2   14.9   1.2   3.8   9.6  10.5   9.2   3.8   2.0   1.6   0.0   0.0   0.1   0.6   1.1   0.7   0.8  1.69  0.69  0.45  0.00  0.00   26.89   35.54    0.11    0.00    0.72
 1991 268    48     2     2     2.8   96.3   16619   81.4   14.9   1.3   3.8   9.3  10.3   9.2   3.8   2.0   1.6   0.0   0.0   0.1   0.5   1.1   0.7   0.8  1.71  0.70  0.45  0.00  0.00   27.46   36.04    0.12    0.00    0.72
 1991 269    49     2     2     2.8   95.0   16618   80.1   14.9   1.4   3.7   8.9  10.2   9.1   3.8   2.0   1.6   0.0   0.0   0.1   0.5   1.0   0.7   0.8  1.72  0.70  0.45  0.00  0.00   28.03   36.53    0.13    0.00    0.72
 1991 270    50     2     2     2.8   93.1   16617   78.2   14.9   1.4   3.6   8.3   9.9   8.9   3.8   2.0   1.6   0.0   0.0   0.1   0.5   1.0   0.7   0.8  1.73  0.70  0.45  0.00  0.00   28.59   37.00    0.14    0.00    0.73
 1991 271    51     2     2     2.8   90.9   16617   76.1   14.8   1.4   3.4   7.6   9.6   8.7   3.8   2.0   1.6   0.0   0.0   0.1   0.5   1.0   0.7   0.8  1.75  0.71  0.45  0.00  0.00   29.16   37.55    0.14    0.00    0.73
 1991 272    52     2     2     2.8   88.3   16616   73.5   14.7   1.4   3.1   6.9   9.3   8.4   3.8   2.0   1.6   0.0   0.0   0.1   0.5   0.9   0.7   0.8  1.76  0.71  0.45  0.00  0.00   29.73   38.09    0.15    0.00    0.73
 1991 273    53     2     2     2.8   86.8   16616   72.1   14.7   1.4   3.0   6.5   9.0   8.3   3.8   2.0   1.6   0.0   0.0   0.1   0.5   0.9   0.6   0.7  1.78  0.72  0.44  0.00  0.00   30.28   38.61    0.15    0.00    0.73
 1991 274    54     2     2     2.8   84.8   16615   70.2   14.6   1.4   2.9   6.0   8.7   8.1   3.8   2.0   1.6   0.0   0.0   0.1   0.4   0.9   0.6   0.7  1.79  0.72  0.44  0.00  0.00   30.82   39.12    0.16    0.00    0.74
 1991 275    55     2     2     2.8   82.9   16615   68.3   14.6   1.4   2.7   5.6   8.5   7.9   3.8   2.0   1.6   0.0   0.0   0.1   0.4   0.9   0.6   0.7  1.81  0.72  0.44  0.00  0.00   31.33   39.59    0.17    0.00    0.74
 1991 276    56     2     2     2.8   80.7   16614   66.2   14.5   0.6   2.4   5.3   8.1   7.6   3.8   2.0   1.6   0.0   0.0   0.1   0.4   0.8   0.6   0.7  1.82  0.73  0.44  0.00  0.00   31.80   40.02    0.17    0.00    0.74
 1991 277    57     2     2     2.8   78.7   16614   64.1   14.6   0.6   2.2   4.9   7.8   7.4   3.8   2.1   1.6   0.0   0.0   0.1   0.5   0.8   0.6   0.7  1.83  0.73  0.44  0.00  0.00   32.33   40.37    0.18    0.00    0.74
 1991 278    58     2     2     2.8   77.1   16613   62.5   14.6   0.6   2.1   4.5   7.6   7.1   3.8   2.1   1.6   0.0   0.0   0.1   0.5   0.8   0.6   0.7  1.84  0.73  0.44  0.00  0.00   32.88   40.83    0.18    0.00    0.75
 1991 279    59     2     2     2.8   76.6   16613   61.9   14.7   0.4   1.7   4.3   7.8   7.1   3.8   2.1   1.6   0.0   0.0   0.1   0.5   0.8   0.6   0.7  1.86  0.74  0.44  0.00  0.00   33.41   41.27    0.19    0.00    0.75
 1991 280    60     2     2     2.9   75.3   16612   60.4   15.0   0.2   1.2   3.5   6.6   7.4   4.2   2.2   1.7   0.0   0.0   0.2   0.6   0.9   0.6   0.6  1.87  0.74  0.44  0.00  0.00   33.90   41.44    0.19    0.00    0.75
 1991 281    61     2     2     3.4   74.1   16612   58.8   15.3   0.2   1.1   3.2   6.2   7.0   4.2   2.4   1.7   0.0   0.0   0.2   0.6   0.9   0.6   0.7  1.88  0.75  0.44  0.00  0.00   34.37   41.54    0.23    0.00    0.75
 1991 282    62     2     2     3.7   72.0   16611   56.5   15.4   0.4   1.0   2.8   5.7   6.5   4.2   2.4   1.8   0.0   0.0   0.2   0.7   0.9   0.6   0.7  1.90  0.75  0.44  0.00  0.00   34.83   41.74    0.26    0.00    0.76
 1991 283    63     2     2     3.8   70.6   16611   55.2   15.4   0.4   1.0   2.6   5.4   6.3   4.2   2.5   1.8   0.0   0.0   0.1   0.6   0.9   0.7   0.7  1.91  0.75  0.43  0.00  0.00   35.29   42.09    0.28    0.00    0.76
 1991 284    64     2     2     3.8   67.3   16610   52.1   15.2   0.4   0.8   2.0   4.9   5.7   4.2   2.5   1.8   0.0   0.0   0.1   0.6   0.8   0.6   0.7  1.92  0.76  0.43  0.00  0.00   35.79   42.50    0.29    0.00    0.77
 1991 285    65     2     2     3.8   64.1   16610   49.0   15.0   0.4   0.7   1.5   4.4   5.2   4.2   2.5   1.8   0.0   0.0   0.1   0.5   0.8   0.6   0.7  1.94  0.76  0.43  0.00  0.00   36.35   42.99    0.30    0.00    0.77
 1991 286    66     2     2     3.8   60.0   16609   45.1   14.8   0.4   0.5   0.9   3.7   4.5   4.2   2.5   1.8   0.0   0.0   0.1   0.5   0.7   0.6   0.6  1.95  0.76  0.43  0.00  0.00   36.99   43.53    0.30    0.00    0.77
 1991 287    67     2     2     3.8   54.9   16609   40.5   14.4   0.4   0.4   0.4   2.9   3.6   4.1   2.5   1.8   0.0   0.0   0.1   0.5   0.6   0.6   0.6  1.91  0.77  0.43  0.00  0.00   37.70   44.12    0.31    0.00    0.78
 1991 288    68     2     2     3.8   51.7   16608   37.5   14.2   0.1   0.3   0.3   2.2   3.3   3.9   2.5   1.8   0.0   0.0   0.2   0.5   0.6   0.6   0.6  1.84  0.77  0.43  0.00  0.00   38.48   44.67    0.32    0.00    0.78
 1991 289    69     2     2     7.3   46.3   16607   32.0   14.2   0.4   0.2   0.2   1.1   1.9   3.2   3.0   2.3   0.0   0.0   0.1   0.6   0.7   0.6   0.6  1.78  0.78  0.43  0.00  0.00   39.22   44.98    0.33    0.00    0.78
 1991 290    70     2     2     8.6   43.9   16606   29.5   14.4   0.3   0.2   0.2   1.0   1.5   2.8   2.9   2.3   0.0   0.0   0.2   0.7   0.8   0.6   0.6  1.72  0.78  0.43  0.00  0.00   39.89   45.06    0.41    0.00    0.78
 1991 291    71     2     2     9.3   40.8   16606   26.7   14.1   0.3   0.2   0.2   0.8   1.2   2.5   2.8   2.3   0.0   0.0   0.3   0.7   0.8   0.6   0.6  1.61  0.79  0.43  0.00  0.00   40.57   45.22    0.46    0.00    0.79
 1991 292    72     2     2     9.5   37.3   16605   24.3   13.0   0.5   0.4   0.2   0.6   0.9   2.0   2.8   2.3   0.0   0.0   0.1   0.5   0.8   0.6   0.6  1.44  0.79  0.43  0.00  0.00   41.21   45.69    0.48    0.00    0.79
 1991 293    73     2     2     9.7   34.3   16605   22.3   12.1   0.4   0.4   0.3   0.5   0.7   1.7   2.8   2.3   0.0   0.0   0.1   0.5   0.6   0.6   0.6  1.29  0.80  0.43  0.00  0.00   41.80   46.17    0.49    0.00    0.80
 1991 294    74     2     2     9.7   32.1   16604   20.7   11.4   0.4   0.4   0.3   0.4   0.6   1.4   2.8   2.3   0.0   0.0   0.1   0.5   0.6   0.6   0.6  1.16  0.80  0.43  0.00  0.00   42.41   46.63    0.50    0.00    0.80
 1991 295    75     2     2     9.7   30.4   16603   19.5   10.9   0.4   0.4   0.3   0.3   0.5   1.1   2.8   2.3   0.0   0.0   0.1   0.5   0.6   0.6   0.5  1.05  0.80  0.43  0.00  0.00   43.08   47.16    0.50    0.00    0.80
 1991 296    76     2     2     9.7   29.1   16603   18.6   10.5   0.4   0.4   0.3   0.3   0.4   0.9   2.8   2.3   0.0   0.0   0.1   0.5   0.6   0.5   0.5  0.96  0.81  0.43  0.00  0.00   43.82   47.74    0.50    0.00    0.81
 1991 297    77     2     2     9.7   28.1   16602   17.8   10.3   0.3   0.4   0.3   0.3   0.4   0.8   2.8   2.3   0.0   0.0   0.2   0.5   0.6   0.5   0.5  0.89  0.81  0.43  0.00  0.00   44.55   48.25    0.50    0.00    0.81
 1991 298    78     2     2     9.7   27.3   16601   17.3    9.9   0.5   0.4   0.3   0.3   0.3   0.7   2.8   2.3   0.0   0.0   0.1   0.5   0.6   0.5   0.5  0.83  0.81  0.43  0.00  0.00   45.24   48.84    0.51    0.00    0.81
 1991 299    79     2     2     9.7   26.5   16601   16.8    9.7   0.4   0.4   0.3   0.3   0.3   0.5   2.8   2.3   0.0   0.0   0.1   0.5   0.6   0.5   0.5  0.78  0.82  0.43  0.00  0.00   45.90   49.34    0.51    0.00    0.81
 1991 300    80     2     2     9.7   26.0   16600   16.4    9.6   0.4   0.4   0.3   0.3   0.3   0.5   2.8   2.3   0.0   0.0   0.1   0.5   0.6   0.5   0.5  0.74  0.82  0.42  0.00  0.00   46.54   49.82    0.51    0.00    0.81
 1991 301    81     2     2     9.7   25.6   16600   16.1    9.5   0.4   0.4   0.3   0.3   0.3   0.4   2.8   2.3   0.0   0.0   0.1   0.5   0.6   0.5   0.5  0.71  0.82  0.42  0.00  0.00   47.15   50.26    0.51    0.00    0.82
 1991 302    82     2     2     9.7   25.2   16599   15.9    9.3   0.4   0.4   0.3   0.3   0.3   0.3   2.8   2.4   0.0   0.0   0.1   0.5   0.6   0.5   0.5  0.68  0.82  0.42  0.00  0.00   47.76   50.71    0.51    0.00    0.82
 1991 303    83     2     2     9.7   25.0   16598   15.7    9.3   0.2   0.4   0.3   0.3   0.3   0.3   2.8   2.4   0.0   0.0   0.1   0.5   0.6   0.5   0.5  0.66  0.83  0.42  0.00  0.00   48.37   51.16    0.52    0.00    0.82
 1991 304    84     2     2     9.7   24.9   16598   15.6    9.3   0.3   0.3   0.3   0.3   0.3   0.3   2.8   2.4   0.0   0.0   0.2   0.6   0.6   0.5   0.5  0.65  0.83  0.42  0.00  0.00   48.96   51.44    0.52    0.00    0.82
 1991 305    85     2     2     9.7   24.9   16597   15.6    9.4   0.3   0.3   0.3   0.3   0.3   0.3   2.8   2.4   0.0   0.0   0.3   0.6   0.6   0.5   0.5  0.63  0.83  0.42  0.00  0.00   49.53   51.73    0.52    0.00    0.82
 1991 306    86     2     2     9.7   25.0   16597   15.7    9.2   0.3   0.4   0.3   0.3   0.3   0.3   2.9   2.4   0.0   0.0   0.3   0.5   0.6   0.5   0.5  0.62  0.83  0.42  0.00  0.00   50.10   52.15    0.52    0.00    0.82
 1991 307    87     2     2     9.7   24.9   16596   15.9    9.0   0.5   0.4   0.3   0.3   0.3   0.3   2.9   2.4   0.0   0.0   0.2   0.5   0.6   0.5   0.5  0.61  0.82  0.42  0.00  0.00   50.68   52.72    0.52    0.00    0.83
 1991 308    88     2     2     9.7   24.8   16596   15.9    8.9   0.4   0.4   0.3   0.3   0.3   0.3   2.9   2.4   0.0   0.0   0.1   0.5   0.6   0.5   0.5  0.61  0.81  0.42  0.00  0.00   51.28   53.22    0.52    0.00    0.83
 1991 309    89     2     2     9.7   24.9   16595   16.0    8.9   0.4   0.4   0.3   0.3   0.3   0.3   2.9   2.4   0.0   0.0   0.1   0.5   0.6   0.5   0.5  0.60  0.79  0.42  0.00  0.00   51.91   53.73    0.52    0.00    0.83
 1991 310    90     2     2     9.7   24.9   16594   16.1    8.8   0.3   0.4   0.3   0.3   0.3   0.3   3.0   2.4   0.0   0.0   0.1   0.5   0.6   0.5   0.5  0.59  0.78  0.42  0.00  0.00   52.57   54.27    0.52    0.00    0.84
 1991 311    91     2     2     9.7   24.9   16594   16.0    8.9   0.3   0.3   0.3   0.3   0.3   0.3   3.0   2.4   0.0   0.0   0.2   0.6   0.6   0.5   0.5  0.59  0.77  0.42  0.00  0.00   53.23   54.64    0.53    0.00    0.84
 1991 312    92     2     2     9.7   24.8   16593   16.1    8.7   0.5   0.4   0.3   0.3   0.3   0.3   2.9   2.4   0.0   0.0   0.1   0.5   0.6   0.5   0.5  0.59  0.75  0.41  0.00  0.00   53.89   55.28    0.53    0.00    0.84
 1991 313    93     2     2     9.7   23.8   16593   15.2    8.6   0.4   0.4   0.3   0.3   0.3   0.3   2.6   2.4   0.0   0.0   0.1   0.5   0.6   0.5   0.5  0.58  0.71  0.41  0.00  0.00   54.54   55.81    0.53    0.00    0.84
 1991 314    94     2     2     9.7   22.9   16592   14.5    8.4   0.4   0.4   0.3   0.3   0.3   0.3   2.3   2.4   0.0   0.0   0.1   0.5   0.6   0.5   0.5  0.58  0.67  0.41  0.00  0.00   55.18   56.34    0.53    0.00    0.84
 1991 315    95     2     2     9.7   22.2   16591   13.8    8.3   0.4   0.4   0.3   0.3   0.3   0.3   2.0   2.4   0.0   0.0   0.1   0.5   0.6   0.5   0.5  0.58  0.64  0.41  0.00  0.00   55.80   56.85    0.53    0.00    0.85
 1991 316    96     2     2     9.7   21.5   16591   13.3    8.2   0.4   0.4   0.3   0.3   0.3   0.3   1.8   2.4   0.0   0.0   0.1   0.5   0.6   0.5   0.5  0.57  0.61  0.41  0.00  0.00   56.39   57.35    0.53    0.00    0.85
 1991 317    97     2     2     9.7   20.9   16590   12.7    8.1   0.4   0.4   0.3   0.3   0.3   0.3   1.6   2.4   0.0   0.0   0.1   0.5   0.6   0.5   0.5  0.57  0.59  0.41  0.00  0.00   56.95   57.82    0.53    0.00    0.85
 1991 318    98     2     2     9.7   20.4   16590   12.3    8.1   0.4   0.4   0.3   0.3   0.3   0.3   1.4   2.4   0.0   0.0   0.1   0.5   0.6   0.5   0.5  0.57  0.57  0.41  0.00  0.00   57.48   58.29    0.53    0.00    0.85
 1991 319    99     2     2     9.7   19.9   16589   11.9    8.0   0.4   0.4   0.3   0.3   0.3   0.3   1.2   2.4   0.0   0.0   0.1   0.5   0.6   0.5   0.5  0.57  0.56  0.41  0.00  0.00   57.99   58.73    0.53    0.00    0.85
 1991 320   100     2     2     9.7   19.5   16589   11.5    7.9   0.3   0.3   0.3   0.3   0.3   0.3   1.1   2.4   0.0   0.0   0.1   0.5   0.6   0.5   0.5  0.56  0.54  0.41  0.00  0.00   58.47   59.15    0.53    0.00    0.86
 1991 321   101     2     2     9.7   19.1   16589   11.3    7.8   0.4   0.3   0.3   0.3   0.3   0.3   1.0   2.4   0.0   0.0   0.1   0.5   0.6   0.5   0.5  0.56  0.53  0.41  0.00  0.00   58.96   59.58    0.53    0.00    0.86
 1991 322   102     2     2     9.7   18.8   16588   11.0    7.8   0.4   0.4   0.3   0.3   0.3   0.3   0.9   2.5   0.0   0.0   0.1   0.5   0.5   0.5   0.5  0.56  0.52  0.40  0.00  0.00   59.44   60.04    0.53    0.00    0.86
 1991 323   103     2     2     9.7   18.5   16588   10.8    7.7   0.2   0.4   0.4   0.3   0.3   0.3   0.8   2.5   0.0   0.0   0.1   0.4   0.5   0.5   0.5  0.56  0.51  0.39  0.00  0.00   59.92   60.51    0.53    0.00    0.86
 1991 324   104     2     2     9.7   18.3   16587   10.5    7.8   0.2   0.3   0.3   0.3   0.3   0.3   0.7   2.5   0.0   0.0   0.2   0.5   0.6   0.5   0.5  0.56  0.50  0.38  0.00  0.00   60.52   60.84    0.53    0.00    0.87
 1991 325   105     2     2     9.7   18.3   16586   10.6    7.7   0.4   0.4   0.3   0.3   0.3   0.3   0.6   2.5   0.0   0.0   0.1   0.5   0.6   0.5   0.5  0.56  0.50  0.37  0.00  0.00   61.13   61.43    0.53    0.00    0.87
 1991 326   106     2     2     9.7   18.1   16586   10.5    7.6   0.4   0.4   0.3   0.3   0.3   0.3   0.5   2.5   0.0   0.0   0.1   0.5   0.6   0.5   0.5  0.55  0.49  0.37  0.00  0.00   61.75   61.97    0.53    0.00    0.87
 1991 327   107     2     2     9.7   18.0   16585   10.4    7.6   0.4   0.4   0.3   0.3   0.3   0.3   0.5   2.5   0.0   0.0   0.1   0.5   0.6   0.5   0.4  0.55  0.48  0.36  0.00  0.00   62.40   62.57    0.53    0.00    0.87
 1991 328   108     2     2     9.7   17.8   16585   10.4    7.4   0.4   0.4   0.3   0.3   0.3   0.3   0.4   2.5   0.0   0.0   0.1   0.5   0.6   0.5   0.4  0.55  0.47  0.35  0.00  0.00   63.06   63.21    0.53    0.00    0.88
 1991 329   109     2     2     9.7   17.6   16584   10.3    7.4   0.1   0.2   0.3   0.3   0.4   0.3   0.4   2.5   0.0   0.0   0.1   0.5   0.6   0.5   0.4  0.55  0.47  0.34  0.00  0.00   63.69   63.82    0.53    0.00    0.88
 1991 330   110     2     2     9.7   17.7   16583    9.8    7.9   0.1   0.2   0.2   0.3   0.3   0.3   0.4   2.5   0.0   0.0   0.2   0.6   0.7   0.5   0.5  0.55  0.46  0.33  0.00  0.00   64.42   63.97    0.53    0.00    0.88
 1991 331   111     2     2     9.7   17.9   16583    9.6    8.3   0.1   0.2   0.2   0.3   0.3   0.3   0.4   2.5   0.0   0.0   0.3   0.7   0.7   0.5   0.5  0.57  0.46  0.33  0.00  0.00   65.12   64.13    0.53    0.00    0.88
 1991 332   112     2     2    10.2   17.4   16582    8.8    8.6   0.2   0.2   0.2   0.3   0.2   0.2   0.3   2.3   0.0   0.0   0.4   0.7   0.8   0.6   0.5  0.57  0.46  0.32  0.00  0.00   65.79   64.28    0.53    0.00    0.89
 1991 333   113     2     2    10.2   17.2   16582    8.8    8.4   0.5   0.3   0.3   0.3   0.3   0.2   0.3   2.2   0.0   0.0   0.1   0.7   0.7   0.6   0.5  0.58  0.45  0.32  0.00  0.00   66.42   64.64    0.53    0.00    0.89
 1991 334   114     2     2    10.5   16.7   16581    8.2    8.6   0.4   0.3   0.3   0.3   0.3   0.2   0.3   2.0   0.0   0.0   0.2   0.7   0.8   0.6   0.6  0.58  0.45  0.31  0.00  0.00   67.09   64.80    0.54    0.00    0.89
 1991 335   115     2     2    10.5   16.5   16580    8.1    8.5   0.5   0.3   0.3   0.3   0.3   0.3   0.3   1.8   0.0   0.0   0.1   0.7   0.7   0.6   0.6  0.58  0.44  0.30  0.00  0.00   67.81   65.16    0.54    0.00    0.90
 1991 336   116     2     2    10.5   16.2   16580    8.1    8.1   0.4   0.5   0.3   0.3   0.3   0.3   0.3   1.7   0.0   0.0   0.1   0.5   0.7   0.6   0.6  0.58  0.44  0.30  0.00  0.00   68.57   65.76    0.54    0.00    0.90
 1991 337   117     2     2    10.5   15.8   16579    7.9    7.9   0.4   0.4   0.3   0.3   0.3   0.3   0.3   1.6   0.0   0.0   0.1   0.5   0.6   0.6   0.5  0.58  0.44  0.29  0.00  0.00   69.38   66.46    0.54    0.00    0.90
 1991 338   118     2     2    10.5   15.4   16578    7.6    7.7   0.4   0.4   0.3   0.3   0.3   0.3   0.3   1.5   0.0   0.0   0.1   0.5   0.6   0.5   0.5  0.58  0.43  0.29  0.00  0.00   70.17   67.11    0.54    0.00    0.90
 1991 339   119     2     2    10.5   15.1   16577    7.5    7.7   0.3   0.4   0.4   0.3   0.3   0.3   0.3   1.4   0.0   0.0   0.1   0.5   0.6   0.5   0.5  0.58  0.43  0.28  0.00  0.00   71.01   67.79    0.54    0.00    0.91
 1991 340   120     2     2    10.5   15.0   16577    6.9    8.0   0.3   0.3   0.3   0.3   0.3   0.3   0.3   1.4   0.0   0.0   0.2   0.6   0.7   0.5   0.5  0.58  0.42  0.28  0.00  0.00   71.82   68.10    0.54    0.00    0.91
 1991 341   121     2     2    10.5   14.9   16576    7.0    8.0   0.7   0.3   0.3   0.3   0.3   0.3   0.3   1.3   0.0   0.0   0.0   0.7   0.7   0.5   0.5  0.58  0.42  0.27  0.00  0.00   72.67   68.66    0.54    0.00    0.91
 1991 342   122     2     2    10.5   14.6   16575    6.9    7.7   0.3   0.5   0.3   0.3   0.3   0.3   0.3   1.2   0.0   0.0   0.2   0.5   0.6   0.5   0.5  0.58  0.42  0.26  0.00  0.00   73.50   69.35    0.54    0.00    0.91
 1991 343   123     2     2    10.5   14.4   16574    6.8    7.6   0.4   0.4   0.4   0.3   0.3   0.3   0.3   1.1   0.0   0.0   0.1   0.5   0.6   0.5   0.5  0.58  0.41  0.26  0.00  0.00   74.35   70.10    0.54    0.00    0.92
 1991 344   124     2     2    10.5   14.2   16574    6.2    8.0   0.2   0.3   0.3   0.3   0.3   0.3   0.3   1.1   0.0   0.0   0.2   0.6   0.7   0.6   0.5  0.58  0.41  0.25  0.00  0.00   75.14   70.32    0.54    0.00    0.92
 1991 345   125     2     2    10.5   14.3   16573    6.0    8.3   0.3   0.3   0.3   0.3   0.3   0.3   0.3   1.0   0.0   0.0   0.3   0.7   0.8   0.6   0.6  0.58  0.40  0.25  0.00  0.00   75.94   70.52    0.54    0.00    0.92
 1991 346   126     2     2    10.5   14.3   16572    6.1    8.2   0.7   0.3   0.3   0.3   0.3   0.3   0.3   1.0   0.0   0.0   0.0   0.7   0.8   0.6   0.6  0.58  0.40  0.24  0.00  0.00   76.72   70.95    0.54    0.00    0.93
 1991 347   127     2     2    10.5   14.0   16571    5.9    8.1   0.1   0.5   0.3   0.3   0.3   0.3   0.3   0.9   0.0   0.0   0.1   0.5   0.7   0.6   0.6  0.58  0.40  0.24  0.00  0.00   77.49   71.38    0.54    0.00    0.93
 1991 348   128     2     2    10.5   13.9   16571    5.6    8.3   0.1   0.3   0.3   0.3   0.3   0.3   0.3   0.9   0.0   0.0   0.2   0.6   0.8   0.6   0.6  0.58  0.40  0.24  0.00  0.00   78.24   71.57    0.55    0.00    0.93
 1991 349   129     2     2    10.5   14.0   16570    5.4    8.6   0.2   0.3   0.3   0.3   0.3   0.3   0.3   0.8   0.0   0.0   0.3   0.7   0.8   0.6   0.6  0.59  0.39  0.23  0.00  0.00   78.97   71.73    0.55    0.00    0.93
 1991 350   130     2     2    10.5   14.1   16570    5.3    8.7   0.2   0.3   0.3   0.3   0.3   0.3   0.3   0.8   0.0   0.0   0.4   0.8   0.8   0.7   0.6  0.59  0.39  0.23  0.00  0.00   79.69   71.91    0.56    0.00    0.94
 1991 351   131     2     2    10.5   14.1   16569    5.2    8.9   0.3   0.3   0.3   0.3   0.3   0.3   0.3   0.7   0.0   0.0   0.4   0.8   0.8   0.7   0.6  0.60  0.39  0.22  0.00  0.00   80.39   72.09    0.57    0.00    0.94
 1991 352   132     2     2    10.5   14.2   16568    5.4    8.7   0.8   0.3   0.3   0.3   0.2   0.2   0.3   0.7   0.0   0.0   0.0   0.8   0.9   0.7   0.6  0.60  0.39  0.22  0.00  0.00   81.13   72.55    0.58    0.00    0.95
 1991 353   133     2     2    10.5   13.8   16568    5.2    8.6   0.0   0.3   0.3   0.3   0.3   0.3   0.3   0.7   0.0   0.0   0.1   0.8   0.8   0.7   0.6  0.60  0.38  0.21  0.00  0.00   81.90   72.77    0.59    0.00    0.95
 1991 354   134     2     2    10.5   13.7   16567    4.8    8.9   0.0   0.3   0.3   0.3   0.3   0.2   0.3   0.6   0.0   0.0   0.3   0.8   0.8   0.7   0.7  0.61  0.39  0.22  0.00  0.00   82.69   72.91    0.60    0.00    0.96
 1991 355   135     2     2    10.7   13.7   16566    4.9    8.9   0.5   0.3   0.3   0.3   0.3   0.2   0.2   0.5   0.0   0.0   0.0   0.8   0.9   0.7   0.7  0.61  0.40  0.22  0.00  0.00   83.55   73.29    0.61    0.00    0.96
 1991 356   136     2     2    10.7   13.6   16565    4.7    8.9   0.3   0.3   0.3   0.3   0.3   0.2   0.3   0.5   0.0   0.0   0.2   0.8   0.8   0.7   0.7  0.62  0.41  0.22  0.00  0.00   84.45   73.49    0.62    0.00    0.96
 1991 357   137     2     2    10.8   13.5   16564    5.1    8.4   0.4   0.5   0.3   0.3   0.3   0.3   0.3   0.5   0.0   0.0   0.0   0.5   0.8   0.7   0.7  0.62  0.40  0.21  0.00  0.00   85.35   74.17    0.62    0.00    0.96
 1991 358   138     2     2    10.9   13.3   16564    4.5    8.8   0.3   0.3   0.3   0.3   0.2   0.2   0.2   0.4   0.0   0.0   0.2   0.6   0.8   0.7   0.7  0.63  0.41  0.22  0.00  0.00   86.23   74.29    0.63    0.00    0.97
 1991 359   139     2     2    11.0   13.4   16563    4.6    8.8   0.6   0.3   0.3   0.3   0.3   0.2   0.2   0.4   0.0   0.0   0.0   0.7   0.8   0.7   0.7  0.63  0.42  0.22  0.00  0.00   87.13   74.67    0.64    0.00    0.97
 1991 360   140     2     2    11.0   13.2   16562    4.6    8.5   0.3   0.5   0.3   0.3   0.3   0.2   0.3   0.4   0.0   0.0   0.2   0.5   0.8   0.7   0.7  0.63  0.43  0.22  0.00  0.00   88.00   75.10    0.64    0.00    0.97
 1991 361   141     2     2    11.0   13.0   16561    4.6    8.4   0.3   0.4   0.3   0.3   0.3   0.2   0.3   0.3   0.0   0.0   0.3   0.5   0.6   0.7   0.7  0.63  0.44  0.22  0.00  0.00   88.83   75.54    0.64    0.00    0.97
 1991 362   142     2     2    11.0   12.9   16561    4.9    8.0   0.6   0.4   0.3   0.3   0.3   0.3   0.3   0.3   0.0   0.0   0.0   0.5   0.6   0.6   0.6  0.62  0.43  0.22  0.00  0.00   89.65   76.33    0.64    0.00    0.98
 1991 363   143     2     2    11.0   12.6   16560    4.7    7.9   0.3   0.4   0.3   0.3   0.3   0.3   0.3   0.3   0.0   0.0   0.1   0.5   0.6   0.6   0.6  0.62  0.43  0.22  0.00  0.00   90.46   76.91    0.64    0.00    0.98
 1991 364   144     2     2    11.0   12.5   16559    4.7    7.8   0.4   0.4   0.3   0.3   0.3   0.3   0.3   0.3   0.0   0.0   0.1   0.5   0.6   0.6   0.6  0.61  0.43  0.21  0.00  0.00   91.25   77.53    0.64    0.00    0.98
 1991 365   145     2     2    11.0   12.4   16559    4.7    7.7   0.4   0.4   0.3   0.3   0.3   0.3   0.3   0.3   0.0   0.0   0.1   0.5   0.6   0.6   0.6  0.61  0.43  0.21  0.00  0.00   92.07   78.17    0.64    0.00    0.99
 1992 001   146     2     2    11.0   12.4   16558    4.7    7.7   0.4   0.4   0.3   0.3   0.3   0.3   0.3   0.3   0.0   0.0   0.1   0.5   0.6   0.5   0.5  0.61  0.43  0.21  0.00  0.00   92.93   78.84    0.64    0.00    0.99
 1992 002   147     2     2    11.0   12.3   16557    4.7    7.6   0.2   0.5   0.4   0.3   0.3   0.3   0.3   0.3   0.0   0.0   0.1   0.5   0.6   0.5   0.5  0.61  0.43  0.21  0.00  0.00   93.80   79.52    0.64    0.00    0.99
 1992 003   148     2     2    11.0   12.3   16556    4.5    7.9   0.3   0.3   0.3   0.3   0.3   0.3   0.3   0.3   0.0   0.0   0.2   0.6   0.6   0.5   0.5  0.61  0.43  0.20  0.00  0.00   94.69   79.96    0.64    0.00    1.00
 1992 004   149     2     2    11.0   12.4   16556    4.6    7.8   0.6   0.3   0.3   0.3   0.3   0.3   0.3   0.3   0.0   0.0   0.0   0.7   0.6   0.5   0.5  0.60  0.43  0.20  0.00  0.00   95.56   80.60    0.64    0.00    1.00
 1992 005   150     2     2    11.0   12.3   16555    4.6    7.6   0.3   0.5   0.3   0.3   0.3   0.3   0.3   0.3   0.0   0.0   0.1   0.5   0.6   0.5   0.5  0.60  0.43  0.20  0.00  0.00   96.41   81.26    0.64    0.00    1.00
 1992 006   151     2     2    11.0   12.2   16554    4.6    7.6   0.5   0.4   0.3   0.3   0.3   0.3   0.3   0.3   0.0   0.0   0.1   0.5   0.6   0.5   0.5  0.60  0.42  0.20  0.00  0.00   97.23   81.91    0.64    0.00    1.00
 1992 007   152     2     2    11.0   12.1   16554    4.6    7.5   0.4   0.4   0.3   0.3   0.3   0.3   0.3   0.3   0.0   0.0   0.1   0.5   0.6   0.5   0.5  0.60  0.42  0.19  0.00  0.00   98.05   82.52    0.64    0.00    1.01
 1992 008   153     2     2    11.0   12.1   16553    4.6    7.5   0.4   0.4   0.3   0.3   0.3   0.3   0.3   0.3   0.0   0.0   0.1   0.5   0.6   0.5   0.5  0.60  0.42  0.19  0.00  0.00   98.87   83.14    0.64    0.00    1.01
 1992 009   154     2     2    11.0   12.1   16552    4.7    7.5   0.4   0.4   0.3   0.3   0.3   0.3   0.3   0.3   0.0   0.0   0.1   0.5   0.6   0.5   0.5  0.60  0.42  0.19  0.00  0.00   99.71   83.80    0.64    0.00    1.01
 1992 010   155     2     2    11.0   12.1   16551    4.7    7.4   0.4   0.4   0.3   0.3   0.3   0.3   0.3   0.3   0.0   0.0   0.1   0.5   0.6   0.5   0.5  0.60  0.42  0.19  0.00  0.00  100.56   84.47    0.64    0.00    1.02
 1992 011   156     2     2    11.0   12.1   16551    4.7    7.4   0.4   0.4   0.3   0.3   0.3   0.3   0.3   0.3   0.0   0.0   0.1   0.4   0.6   0.5   0.5  0.60  0.42  0.19  0.00  0.00  101.40   85.14    0.64    0.00    1.02
 1992 012   157     2     2    11.0   12.9   16550    5.3    7.6   0.6   0.6   0.4   0.4   0.3   0.3   0.3   0.3   0.0   0.0   0.1   0.4   0.7   0.5   0.5  0.61  0.42  0.18  0.00  0.00  102.22   85.80    0.64    0.00    1.02
 1992 013   158     2     2    11.0   13.7   16549    6.0    7.7   0.7   0.7   0.5   0.4   0.4   0.3   0.3   0.3   0.0   0.0   0.1   0.4   0.7   0.5   0.5  0.63  0.42  0.18  0.00  0.00  103.01   86.47    0.64    0.00    1.02
 1992 014   159     2     2    11.0   14.4   16549    6.6    7.8   0.9   0.9   0.6   0.5   0.4   0.3   0.3   0.3   0.0   0.0   0.1   0.4   0.8   0.5   0.5  0.64  0.42  0.18  0.00  0.00  103.77   87.12    0.64    0.00    1.02

*DSSAT Cropping System Model Ver. 4.0.2.000               Aug 11, 2016; 20:13:27

*RUN   3        : UYMZ                    
 MODEL          : MZCER040 - Maize           
 EXPERIMENT     : UYMZ0148 MZ    late to create DSS                             
 TREATMENT  1   : UYMZ                    

@YEAR DOY   DAS  NAPC  NI#M    NLCC   NIAD    NOAD   NITD   NHTD  NI1D  NI2D  NI3D  NI4D  NI5D  NI6D  NI7D  NI8D  NI9D  NI10  NH1D  NH2D  NH3D  NH4D  NH5D  NH6D  NH7D  NH8D  NH9D  NH10    NMNC    NITC    NDNC    NIMC    AMLC
 1992 220     0     0     0     0.0   99.4   16645   77.1   22.3  16.6  15.4  15.2   8.6   4.6   0.0   0.1   0.1   0.0   0.0   0.0   1.2   1.5   1.4   1.4  1.50  1.46  1.45  0.00  0.00    0.69    2.29    0.00    0.00    0.00
 1992 221     1     0     0     0.0  100.1   16645   78.4   21.7  16.6  15.7  15.3   8.7   4.7   0.0   0.1   0.1   0.0   0.0   0.1   1.1   1.4   1.4   1.4  1.51  1.43  1.41  0.00  0.00    1.35    3.57    0.00    0.00    0.00
 1992 222     2     0     0     0.0  100.7   16644   79.5   21.2  16.7  15.9  15.5   8.8   4.7   0.1   0.2   0.2   0.0   0.0   0.1   1.0   1.4   1.3   1.3  1.51  1.39  1.36  0.00  0.00    1.94    4.70    0.00    0.00    0.00
 1992 223     3     0     0     0.0  101.2   16644   80.5   20.7   6.2  16.1  19.1   8.9   4.8   0.1   0.2   0.2   0.0   0.0   0.1   0.9   1.4   1.3   1.3  1.51  1.36  1.32  0.00  0.00    2.47    5.68    0.00    0.00    0.00
 1992 224     4     2     2     0.0  103.6   16643   82.3   21.4   8.1  15.6  19.5   9.0   4.8   0.1   0.2   0.3   0.0   0.0   1.8   0.9   1.4   1.2   1.3  1.52  1.33  1.28  0.00  0.00    2.95    6.44    0.00    0.00    0.07
 1992 225     5     2     2     0.0  104.0   16643   83.4   20.5   9.0  15.5  19.6   9.2   4.9   0.1   0.3   0.3   0.0   0.0   0.7   1.0   1.3   1.2   1.2  1.52  1.30  1.24  0.00  0.00    3.39    7.63    0.00    0.00    0.17
 1992 226     6     2     2     0.0  104.3   16642   84.4   19.9   9.4  15.5  19.7   9.3   4.9   0.1   0.3   0.3   0.0   0.0   0.3   0.9   1.3   1.2   1.2  1.52  1.27  1.21  0.00  0.00    3.80    8.59    0.00    0.00    0.25
 1992 227     7     2     2     0.0  104.7   16642   85.3   19.4   9.5  15.7  19.7   9.4   5.0   0.1   0.4   0.4   0.0   0.0   0.0   0.8   1.3   1.1   1.2  1.52  1.25  1.17  0.00  0.00    4.25    9.44    0.00    0.00    0.34
 1992 228     8     2     2     0.0  105.1   16641   86.0   19.1   9.6  15.8  19.7   9.5   5.0   0.2   0.4   0.4   0.0   0.0   0.0   0.8   1.3   1.1   1.1  1.53  1.22  1.14  0.00  0.00    4.72   10.22    0.00    0.00    0.36
 1992 229     9     2     2     0.0  105.6   16641   86.8   18.8   9.7  15.9  19.8   9.7   5.1   0.2   0.4   0.4   0.0   0.0   0.1   0.7   1.3   1.1   1.1  1.53  1.19  1.10  0.00  0.00    5.21   11.00    0.00    0.00    0.37
 1992 230    10     2     2     0.0  106.1   16640   87.6   18.5   9.8  16.0  19.8   9.8   5.1   0.2   0.5   0.5   0.0   0.0   0.1   0.7   1.3   1.0   1.1  1.53  1.17  1.07  0.00  0.00    5.73   11.81    0.00    0.00    0.38
 1992 231    11     2     2     0.0  106.6   16640   88.4   18.2   9.9  16.0  19.9   9.9   5.2   0.2   0.5   0.5   0.0   0.0   0.1   0.7   1.3   1.0   1.0  1.53  1.14  1.04  0.00  0.00    6.28   12.63    0.00    0.00    0.40
 1992 232    12     2     2     0.0  107.2   16639   89.3   17.9  10.1  16.1  20.0  10.0   5.2   0.2   0.5   0.6   0.0   0.0   0.1   0.6   1.3   1.0   1.0  1.54  1.12  1.01  0.00  0.00    6.85   13.46    0.00    0.00    0.42
 1992 233    13     2     2     0.0  107.7   16639   90.1   17.7  10.2  16.2  20.0  10.1   5.3   0.2   0.6   0.6   0.0   0.0   0.1   0.6   1.2   0.9   1.0  1.54  1.10  0.98  0.00  0.00    7.42   14.28    0.00    0.00    0.44
 1992 234    14     2     2     0.0  108.3   16638   90.9   17.4  10.4  16.3  20.1  10.2   5.3   0.3   0.6   0.6   0.0   0.0   0.1   0.6   1.2   0.9   1.0  1.54  1.07  0.95  0.00  0.00    8.01   15.09    0.00    0.00    0.44
 1992 235    15     2     2     0.0  108.9   16637   91.7   17.2  10.6  16.3  20.2  10.3   5.4   0.3   0.6   0.7   0.0   0.0   0.1   0.6   1.2   0.9   0.9  1.54  1.05  0.92  0.00  0.00    8.59   15.90    0.00    0.00    0.44
 1992 236    16     2     2     0.0  109.3   16637   92.3   17.0  10.6  16.3  20.3  10.4   5.4   0.3   0.7   0.7   0.0   0.0   0.1   0.6   1.2   0.9   0.9  1.55  1.03  0.90  0.00  0.00    9.17   16.70    0.00    0.00    0.45
 1992 237    17     2     2     0.0  109.9   16636   93.1   16.8  10.7  16.4  20.3  10.5   5.4   0.3   0.7   0.7   0.0   0.0   0.1   0.5   1.2   0.9   0.9  1.55  1.01  0.87  0.00  0.00    9.74   17.47    0.00    0.00    0.45
 1992 238    18     2     2     0.0  110.4   16636   93.8   16.6  10.8  16.5  20.4  10.6   5.5   0.3   0.7   0.7   0.0   0.0   0.1   0.5   1.2   0.8   0.9  1.55  0.99  0.84  0.00  0.00   10.31   18.24    0.00    0.00    0.45
 1992 239    19     2     2     0.0  111.0   16635   94.6   16.4  11.0  16.6  20.5  10.7   5.5   0.4   0.8   0.8   0.0   0.0   0.1   0.5   1.2   0.8   0.9  1.55  0.97  0.82  0.00  0.00   10.88   19.00    0.00    0.00    0.45
[...]
 1992 301    81     2     2     0.0   44.4   16600   33.3   11.2   0.5   0.7   1.1   4.9   3.6   1.4   2.0   1.7   0.0   0.0   0.1   0.5   0.7   0.5   0.5  1.44  0.45  0.22  0.00  0.00   45.94   55.53    0.00    0.00    0.75
 1992 302    82     2     2     0.0   38.2   16600   27.7   10.5   0.4   0.4   0.5   3.7   2.9   1.2   2.0   1.7   0.0   0.0   0.1   0.5   0.6   0.5   0.5  1.32  0.44  0.21  0.00  0.00   46.70   56.22    0.00    0.00    0.75
 1992 303    83     2     2     0.0   37.4   16599   27.0   10.5   0.5   0.5   0.5   3.5   2.7   1.2   2.0   1.7   0.0   0.0   0.1   0.5   0.6   0.5   0.5  1.29  0.44  0.21  0.00  0.00   47.40   56.81    0.00    0.00    0.75
 1992 304    84     2     2     0.0   33.2   16598   23.4    9.8   0.4   0.4   0.3   2.7   2.2   1.0   2.0   1.7   0.0   0.0   0.1   0.5   0.6   0.5   0.5  1.18  0.44  0.21  0.00  0.00   48.04   57.38    0.00    0.00    0.75
 1992 305    85     2     2     0.0   29.9   16598   20.6    9.3   0.4   0.4   0.3   2.1   1.7   0.8   2.0   1.7   0.0   0.0   0.1   0.4   0.6   0.5   0.5  1.06  0.44  0.20  0.00  0.00   48.63   57.90    0.00    0.00    0.76
 1992 306    86     2     2     0.0   27.3   16597   18.5    8.9   0.4   0.4   0.3   1.6   1.4   0.7   2.0   1.7   0.0   0.0   0.1   0.4   0.6   0.5   0.5  0.97  0.43  0.20  0.00  0.00   49.18   58.39    0.00    0.00    0.76
 1992 307    87     2     2     0.0   25.3   16597   16.8    8.5   0.2   0.4   0.4   1.2   1.1   0.6   2.0   1.7   0.0   0.0   0.1   0.4   0.6   0.5   0.5  0.90  0.43  0.20  0.00  0.00   49.70   58.85    0.00    0.00    0.76
 1992 308    88     2     2     0.0   23.8   16596   15.4    8.5   0.1   0.2   0.4   1.0   0.9   0.5   2.0   1.7   0.0   0.0   0.2   0.5   0.6   0.5   0.5  0.84  0.43  0.20  0.00  0.00   50.37   59.21    0.00    0.00    0.76
 1992 309    89     2     2     0.0   22.8   16596   14.3    8.6   0.2   0.2   0.2   0.8   0.7   0.4   2.1   1.7   0.0   0.0   0.3   0.6   0.7   0.5   0.5  0.79  0.43  0.20  0.00  0.00   51.05   59.50    0.00    0.00    0.77
 1992 310    90     2     2     0.0   22.1   16595   13.9    8.2   0.5   0.4   0.3   0.6   0.6   0.4   2.1   1.7   0.0   0.0   0.1   0.5   0.7   0.5   0.5  0.75  0.42  0.19  0.00  0.00   51.71   60.08    0.00    0.00    0.77
 1992 311    91     2     2     0.0   21.2   16594   13.3    7.9   0.4   0.4   0.3   0.5   0.5   0.3   2.1   1.7   0.0   0.0   0.1   0.5   0.6   0.5   0.5  0.71  0.42  0.19  0.00  0.00   52.33   60.57    0.00    0.00    0.77
 1992 312    92     2     2     0.0   20.6   16594   12.8    7.8   0.4   0.4   0.3   0.4   0.4   0.3   2.1   1.7   0.0   0.0   0.1   0.5   0.6   0.5   0.5  0.69  0.42  0.19  0.00  0.00   52.91   61.02    0.00    0.00    0.78
 1992 313    93     2     2     0.0   20.2   16593   12.6    7.6   0.3   0.3   0.3   0.3   0.3   0.3   2.1   1.7   0.0   0.0   0.1   0.5   0.6   0.5   0.5  0.67  0.42  0.19  0.00  0.00   53.43   61.43    0.00    0.00    0.78
 1992 314    94     2     2     0.0   20.0   16593   12.5    7.5   0.4   0.3   0.3   0.3   0.3   0.3   2.1   1.7   0.0   0.0   0.1   0.5   0.6   0.5   0.5  0.65  0.42  0.19  0.00  0.00   53.98   61.85    0.00    0.00    0.78
 1992 315    95     2     2     0.0   20.0   16592   12.6    7.5   0.4   0.4   0.3   0.3   0.3   0.3   2.1   1.7   0.0   0.0   0.1   0.5   0.6   0.5   0.5  0.63  0.41  0.18  0.00  0.00   54.59   62.33    0.00    0.00    0.78
 1992 316    96     2     2     0.0   20.0   16592   12.6    7.4   0.4   0.4   0.3   0.3   0.3   0.3   2.1   1.8   0.0   0.0   0.1   0.5   0.6   0.5   0.5  0.62  0.41  0.18  0.00  0.00   55.21   62.84    0.00    0.00    0.79
 1992 317    97     2     2     0.0   20.0   16591   12.7    7.3   0.4   0.4   0.3   0.3   0.3   0.3   2.2   1.8   0.0   0.0   0.1   0.5   0.6   0.5   0.5  0.61  0.41  0.18  0.00  0.00   55.86   63.38    0.00    0.00    0.79
 1992 318    98     2     2     0.0   20.0   16590   12.8    7.2   0.4   0.4   0.3   0.3   0.3   0.3   2.2   1.8   0.0   0.0   0.1   0.5   0.6   0.5   0.5  0.60  0.41  0.18  0.00  0.00   56.52   63.96    0.00    0.00    0.79
 1992 319    99     2     2     0.0   20.0   16590   12.8    7.1   0.4   0.4   0.3   0.3   0.3   0.3   2.2   1.8   0.0   0.0   0.1   0.4   0.6   0.5   0.5  0.60  0.41  0.18  0.00  0.00   57.17   64.54    0.00    0.00    0.79
 1992 320   100     2     2     0.0   19.9   16589   12.9    7.0   0.1   0.3   0.4   0.4   0.3   0.3   2.2   1.8   0.0   0.0   0.1   0.4   0.6   0.5   0.5  0.59  0.41  0.18  0.00  0.00   57.78   65.11    0.00    0.00    0.80
 1992 321   101     2     2     0.0   20.0   16589   12.5    7.5   0.1   0.3   0.3   0.3   0.3   0.3   2.2   1.8   0.0   0.0   0.2   0.6   0.7   0.5   0.5  0.59  0.40  0.17  0.00  0.00   58.56   65.33    0.00    0.00    0.80
 1992 322   102     2     2     0.0   19.9   16588   12.6    7.3   0.5   0.4   0.3   0.3   0.3   0.3   2.1   1.8   0.0   0.0   0.1   0.5   0.6   0.6   0.5  0.58  0.40  0.17  0.00  0.00   59.33   66.00    0.00    0.00    0.80
 1992 323   103     2     2     0.0   19.2   16587   12.0    7.3   0.3   0.4   0.3   0.3   0.3   0.3   1.8   1.8   0.0   0.0   0.1   0.5   0.6   0.5   0.5  0.58  0.40  0.17  0.00  0.00   60.05   66.53    0.00    0.00    0.80
 1992 324   104     2     2     0.0   18.7   16587   11.4    7.2   0.4   0.4   0.3   0.3   0.3   0.3   1.6   1.8   0.0   0.0   0.1   0.5   0.6   0.5   0.5  0.57  0.40  0.17  0.00  0.00   60.74   67.08    0.00    0.00    0.81
 1992 325   105     2     2     0.0   18.2   16586   11.0    7.2   0.4   0.4   0.3   0.3   0.3   0.3   1.4   1.8   0.0   0.0   0.1   0.5   0.6   0.5   0.5  0.57  0.40  0.17  0.00  0.00   61.42   67.60    0.00    0.00    0.81
 1992 326   106     2     2     0.0   17.8   16585   10.6    7.2   0.4   0.4   0.3   0.3   0.3   0.3   1.2   1.8   0.0   0.0   0.1   0.5   0.6   0.5   0.5  0.57  0.40  0.17  0.00  0.00   62.11   68.15    0.00    0.00    0.81
 1992 327   107     2     2     0.0   17.4   16585   10.2    7.1   0.4   0.4   0.3   0.3   0.3   0.3   1.1   1.8   0.0   0.0   0.1   0.5   0.6   0.5   0.5  0.57  0.40  0.17  0.00  0.00   62.79   68.68    0.00    0.00    0.81
 1992 328   108     2     2     0.0   17.0   16584    9.9    7.1   0.4   0.4   0.3   0.3   0.3   0.3   1.0   1.8   0.0   0.0   0.1   0.5   0.6   0.5   0.5  0.56  0.39  0.16  0.00  0.00   63.46   69.21    0.00    0.00    0.82
 1992 329   109     2     2     0.0   16.7   16583    9.6    7.1   0.4   0.4   0.3   0.3   0.3   0.3   0.9   1.8   0.0   0.0   0.1   0.5   0.6   0.5   0.5  0.56  0.39  0.16  0.00  0.00   64.09   69.72    0.00    0.00    0.82
 1992 330   110     2     2     0.0   16.4   16583    9.4    7.0   0.4   0.4   0.3   0.3   0.3   0.3   0.8   1.8   0.0   0.0   0.1   0.5   0.6   0.5   0.5  0.56  0.39  0.16  0.00  0.00   64.68   70.21    0.00    0.00    0.82
 1992 331   111     2     2     0.0   16.2   16582    9.2    7.0   0.4   0.4   0.3   0.3   0.3   0.3   0.7   1.8   0.0   0.0   0.1   0.5   0.6   0.5   0.5  0.56  0.39  0.16  0.00  0.00   65.23   70.67    0.00    0.00    0.82
 1992 332   112     2     2     0.0   15.9   16582    9.0    6.9   0.4   0.4   0.3   0.3   0.3   0.3   0.6   1.8   0.0   0.0   0.1   0.5   0.6   0.5   0.5  0.56  0.39  0.16  0.00  0.00   65.78   71.15    0.00    0.00    0.83
 1992 333   113     2     2     0.0   15.8   16581    8.9    6.9   0.4   0.4   0.3   0.3   0.3   0.3   0.5   1.8   0.0   0.0   0.1   0.4   0.6   0.5   0.5  0.55  0.38  0.16  0.00  0.00   66.33   71.65    0.00    0.00    0.83
 1992 334   114     2     2     0.0   15.6   16581    8.8    6.8   0.2   0.4   0.4   0.3   0.3   0.3   0.5   1.9   0.0   0.0   0.1   0.4   0.6   0.5   0.5  0.55  0.38  0.16  0.00  0.00   66.88   72.17    0.00    0.00    0.83
 1992 335   115     2     2     0.0   15.5   16580    8.5    7.0   0.1   0.2   0.3   0.4   0.3   0.3   0.4   1.9   0.0   0.0   0.2   0.5   0.6   0.5   0.5  0.55  0.38  0.16  0.00  0.00   67.56   72.51    0.00    0.00    0.83
 1992 336   116     2     2     0.0   15.6   16580    8.2    7.4   0.2   0.2   0.3   0.3   0.3   0.3   0.4   1.9   0.0   0.0   0.3   0.6   0.7   0.5   0.5  0.55  0.38  0.16  0.00  0.00   68.30   72.75    0.00    0.00    0.84
 1992 337   117     2     2     0.0   15.7   16579    8.5    7.2   0.6   0.4   0.3   0.3   0.3   0.3   0.3   1.9   0.0   0.0   0.0   0.5   0.7   0.6   0.5  0.55  0.37  0.16  0.00  0.00   69.05   73.41    0.00    0.00    0.84
 1992 338   118     2     2     0.0   15.6   16578    8.5    7.1   0.3   0.4   0.3   0.3   0.3   0.3   0.3   1.9   0.0   0.0   0.1   0.5   0.6   0.5   0.5  0.55  0.37  0.16  0.00  0.00   69.79   73.95    0.00    0.00    0.84
 1992 339   119     2     2     0.0   15.5   16577    8.5    7.0   0.5   0.4   0.3   0.3   0.3   0.3   0.3   1.9   0.0   0.0   0.1   0.5   0.6   0.5   0.5  0.55  0.37  0.15  0.00  0.00   70.52   74.58    0.00    0.00    0.85
 1992 340   120     2     2     0.0   15.3   16577    8.3    7.0   0.4   0.4   0.3   0.3   0.3   0.3   0.3   1.8   0.0   0.0   0.1   0.5   0.6   0.5   0.5  0.54  0.36  0.15  0.00  0.00   71.25   75.16    0.00    0.00    0.85
 1992 341   121     2     2     0.0   15.0   16576    8.1    6.9   0.2   0.4   0.4   0.3   0.3   0.3   0.3   1.8   0.0   0.0   0.1   0.5   0.6   0.5   0.5  0.54  0.36  0.15  0.00  0.00   71.97   75.74    0.00    0.00    0.85
 1992 342   122     2     2     0.0   14.8   16575    7.5    7.4   0.2   0.3   0.3   0.3   0.3   0.3   0.3   1.7   0.0   0.0   0.2   0.6   0.7   0.6   0.5  0.54  0.36  0.15  0.00  0.00   72.72   75.96    0.00    0.00    0.85
 1992 343   123     2     2     0.0   14.9   16575    7.6    7.3   0.6   0.3   0.3   0.3   0.3   0.3   0.3   1.6   0.0   0.0   0.0   0.7   0.7   0.5   0.5  0.54  0.35  0.15  0.00  0.00   73.49   76.47    0.00    0.00    0.86
 1992 344   124     2     2     0.0   14.5   16574    7.5    7.0   0.3   0.5   0.3   0.3   0.3   0.3   0.3   1.5   0.0   0.0   0.1   0.5   0.6   0.5   0.5  0.54  0.35  0.15  0.00  0.00   74.26   77.13    0.00    0.00    0.86
 1992 345   125     2     2     0.0   14.2   16573    7.3    6.9   0.5   0.4   0.3   0.3   0.3   0.3   0.3   1.4   0.0   0.0   0.1   0.5   0.6   0.5   0.5  0.54  0.34  0.15  0.00  0.00   75.01   77.77    0.00    0.00    0.86
 1992 346   126     2     2     0.0   13.9   16573    7.0    6.9   0.4   0.4   0.3   0.3   0.3   0.3   0.3   1.3   0.0   0.0   0.1   0.5   0.6   0.5   0.5  0.54  0.34  0.15  0.00  0.00   75.75   78.37    0.00    0.00    0.87
 1992 347   127     2     2     0.0   13.7   16572    6.8    6.9   0.4   0.4   0.3   0.3   0.3   0.3   0.3   1.2   0.0   0.0   0.1   0.5   0.6   0.5   0.5  0.54  0.34  0.15  0.00  0.00   76.48   78.96    0.00    0.00    0.87
 1992 348   128     2     2     0.0   13.5   16571    6.7    6.9   0.4   0.4   0.3   0.3   0.3   0.3   0.3   1.1   0.0   0.0   0.1   0.5   0.6   0.5   0.5  0.54  0.33  0.15  0.00  0.00   77.20   79.56    0.00    0.00    0.87
 1992 349   129     2     2     0.0   13.3   16571    6.5    6.8   0.4   0.4   0.3   0.3   0.3   0.3   0.3   1.1   0.0   0.0   0.1   0.5   0.6   0.5   0.5  0.54  0.33  0.15  0.00  0.00   77.91   80.16    0.00    0.00    0.87
 1992 350   130     2     2     0.0   13.1   16570    6.4    6.8   0.4   0.4   0.3   0.3   0.3   0.3   0.3   1.0   0.0   0.0   0.1   0.5   0.6   0.5   0.5  0.54  0.32  0.15  0.00  0.00   78.60   80.77    0.00    0.00    0.88
 1992 351   131     2     2     0.0   12.9   16569    6.2    6.7   0.4   0.4   0.3   0.3   0.3   0.3   0.3   1.0   0.0   0.0   0.1   0.4   0.6   0.5   0.5  0.54  0.32  0.14  0.00  0.00   79.25   81.37    0.00    0.00    0.88
 1992 352   132     2     2     0.0   12.7   16569    6.1    6.6   0.4   0.4   0.3   0.3   0.3   0.3   0.3   0.9   0.0   0.0   0.1   0.4   0.6   0.5   0.5  0.53  0.32  0.14  0.00  0.00   79.89   81.97    0.00    0.00    0.88
 1992 353   133     2     2     0.0   12.4   16568    5.9    6.5   0.2   0.4   0.4   0.3   0.3   0.3   0.3   0.8   0.0   0.0   0.1   0.4   0.6   0.5   0.5  0.53  0.31  0.14  0.00  0.00   80.49   82.54    0.00    0.00    0.88
 1992 354   134     2     2     0.0   12.3   16568    5.6    6.7   0.2   0.3   0.3   0.3   0.3   0.3   0.3   0.8   0.0   0.0   0.2   0.5   0.6   0.5   0.5  0.53  0.31  0.14  0.00  0.00   81.20   82.92    0.00    0.00    0.89
 1992 355   135     2     2     0.0   12.4   16567    5.9    6.6   0.6   0.4   0.3   0.3   0.3   0.3   0.3   0.7   0.0   0.0   0.0   0.5   0.6   0.5   0.5  0.53  0.30  0.14  0.00  0.00   81.92   83.68    0.00    0.00    0.89
 1992 356   136     2     2     0.0   12.2   16566    5.6    6.6   0.3   0.4   0.3   0.3   0.3   0.3   0.3   0.7   0.0   0.0   0.2   0.5   0.6   0.5   0.5  0.53  0.30  0.14  0.00  0.00   82.65   84.27    0.00    0.00    0.89
 1992 357   137     2     2     0.0   12.1   16566    5.7    6.5   0.5   0.4   0.3   0.3   0.3   0.3   0.3   0.7   0.0   0.0   0.1   0.5   0.6   0.5   0.5  0.53  0.30  0.14  0.00  0.00   83.37   85.00    0.00    0.00    0.89
 1992 358   138     2     2     0.0   12.0   16565    5.5    6.5   0.3   0.4   0.3   0.3   0.3   0.3   0.3   0.6   0.0   0.0   0.2   0.5   0.6   0.5   0.4  0.53  0.29  0.13  0.00  0.00   84.08   85.57    0.00    0.00    0.90
 1992 359   139     2     2     0.0   11.9   16564    5.5    6.3   0.5   0.3   0.4   0.3   0.3   0.3   0.3   0.6   0.0   0.0   0.0   0.5   0.6   0.5   0.4  0.53  0.29  0.13  0.00  0.00   84.78   86.34    0.00    0.00    0.90
 1992 360   140     2     2     0.0   11.7   16564    5.0    6.7   0.3   0.3   0.3   0.3   0.3   0.3   0.3   0.6   0.0   0.0   0.2   0.6   0.7   0.5   0.4  0.53  0.28  0.13  0.00  0.00   85.54   86.61    0.00    0.00    0.90
 1992 361   141     2     2     0.0   11.8   16563    5.4    6.5   0.5   0.5   0.3   0.3   0.3   0.3   0.3   0.5   0.0   0.0   0.1   0.5   0.6   0.5   0.4  0.53  0.28  0.13  0.00  0.00   86.28   87.35    0.00    0.00    0.90
 1992 362   142     2     2     0.0   11.5   16562    5.1    6.4   0.4   0.4   0.3   0.3   0.3   0.3   0.3   0.5   0.0   0.0   0.1   0.5   0.6   0.5   0.4  0.53  0.28  0.13  0.00  0.00   86.99   87.92    0.00    0.00    0.91
 1992 363   143     2     2     0.0   11.5   16562    5.1    6.4   0.4   0.4   0.3   0.3   0.3   0.3   0.3   0.5   0.0   0.0   0.1   0.5   0.6   0.5   0.4  0.53  0.27  0.13  0.00  0.00   87.69   88.53    0.00    0.00    0.91
 1992 364   144     2     2     0.0   11.4   16561    5.0    6.3   0.4   0.4   0.3   0.3   0.3   0.3   0.3   0.4   0.0   0.0   0.1   0.5   0.6   0.5   0.4  0.53  0.27  0.13  0.00  0.00   88.40   89.14    0.00    0.00    0.91
 1992 365   145     2     2     0.0   11.2   16560    5.0    6.3   0.4   0.4   0.3   0.3   0.3   0.3   0.3   0.4   0.0   0.0   0.1   0.5   0.6   0.5   0.4  0.53  0.27  0.12  0.00  0.00   89.07   89.73    0.00    0.00    0.91
 1992 366   146     2     2     0.0   11.1   16560    4.9    6.3   0.1   0.3   0.3   0.3   0.4   0.3   0.3   0.4   0.0   0.0   0.1   0.4   0.6   0.5   0.4  0.53  0.26  0.12  0.00  0.00   89.72   90.29    0.00    0.00    0.92
 1993 001   147     2     2     0.0   11.2   16559    4.5    6.7   0.2   0.1   0.2   0.2   0.2   0.3   0.3   0.4   0.0   0.0   0.1   0.6   0.7   0.5   0.4  0.53  0.26  0.12  0.00  0.00   90.40   90.48    0.00    0.00    0.92
 1993 002   148     2     2     0.1   11.4   16559    4.2    7.2   0.2   0.1   0.2   0.2   0.2   0.3   0.3   0.4   0.0   0.0   0.2   0.7   0.8   0.5   0.5  0.54  0.27  0.12  0.00  0.00   90.98   90.54    0.00    0.00    0.92
 1993 003   149     2     2     0.2   11.6   16558    4.1    7.5   0.2   0.2   0.2   0.2   0.2   0.2   0.3   0.4   0.0   0.0   0.3   0.7   0.8   0.6   0.5  0.55  0.27  0.12  0.00  0.00   91.61   90.63    0.00    0.00    0.92
 1993 004   150     2     2     0.3   11.6   16557    3.9    7.8   0.2   0.2   0.2   0.2   0.2   0.2   0.3   0.4   0.0   0.0   0.4   0.8   0.8   0.6   0.5  0.56  0.28  0.13  0.00  0.00   92.23   90.73    0.00    0.00    0.93
 1993 005   151     2     2     0.5   11.8   16557    3.8    8.0   0.3   0.2   0.2   0.2   0.2   0.2   0.2   0.3   0.0   0.0   0.4   0.8   0.8   0.6   0.5  0.57  0.28  0.13  0.00  0.00   92.88   90.86    0.01    0.00    0.93
 1993 006   152     2     2     0.5   11.9   16556    4.1    7.8   0.8   0.2   0.2   0.2   0.2   0.2   0.2   0.3   0.0   0.0   0.1   0.8   0.8   0.6   0.6  0.57  0.29  0.13  0.00  0.00   93.60   91.27    0.01    0.00    0.94
 1993 007   153     2     2     0.5   11.7   16556    4.2    7.6   0.3   0.5   0.2   0.2   0.2   0.2   0.2   0.3   0.0   0.0   0.1   0.5   0.8   0.6   0.6  0.58  0.29  0.13  0.00  0.00   94.39   91.68    0.02    0.00    0.95
 1993 008   154     2     2     0.6   11.8   16555    4.4    7.4   0.3   0.4   0.4   0.3   0.3   0.2   0.2   0.3   0.0   0.0   0.1   0.5   0.6   0.6   0.6  0.58  0.30  0.13  0.00  0.00   95.21   92.29    0.02    0.00    0.95
 1993 009   155     2     2     0.6   11.9   16554    4.0    7.9   0.3   0.3   0.3   0.3   0.3   0.2   0.3   0.2   0.0   0.0   0.2   0.6   0.7   0.6   0.6  0.59  0.31  0.14  0.00  0.00   96.05   92.41    0.02    0.00    0.95
 1993 010   156     2     2     0.6   12.3   16553    4.4    7.9   0.6   0.3   0.3   0.3   0.3   0.3   0.3   0.3   0.0   0.0   0.0   0.7   0.8   0.6   0.6  0.59  0.31  0.14  0.00  0.00   96.91   92.82    0.02    0.00    0.95
 1993 011   157     2     2     0.6   12.2   16553    4.5    7.7   0.3   0.5   0.3   0.3   0.3   0.3   0.3   0.3   0.0   0.0   0.2   0.5   0.7   0.6   0.6  0.59  0.31  0.14  0.00  0.00   97.79   93.29    0.02    0.00    0.96
 1993 012   158     2     2     0.6   12.1   16552    4.8    7.4   0.5   0.4   0.4   0.3   0.3   0.3   0.3   0.3   0.0   0.0   0.1   0.5   0.6   0.6   0.6  0.59  0.31  0.14  0.00  0.00   98.66   94.06    0.02    0.00    0.96
 1993 013   159     2     2     0.6   12.0   16551    4.7    7.3   0.4   0.4   0.3   0.3   0.3   0.3   0.3   0.3   0.0   0.0   0.1   0.5   0.6   0.6   0.6  0.59  0.31  0.14  0.00  0.00   99.58   94.77    0.02    0.00    0.96
 1993 014   160     2     2     0.6   11.9   16550    4.8    7.2   0.5   0.4   0.3   0.3   0.3   0.3   0.3   0.3   0.0   0.0   0.1   0.5   0.6   0.6   0.6  0.59  0.31  0.14  0.00  0.00  100.52   95.53    0.02    0.00    0.97
 1993 015   161     2     2     0.6   11.9   16550    4.7    7.2   0.1   0.3   0.4   0.3   0.3   0.3   0.3   0.3   0.0   0.0   0.1   0.4   0.6   0.6   0.6  0.60  0.31  0.14  0.00  0.00  101.48   96.26    0.02    0.00    0.97
 1993 016   162     2     2     0.7   11.9   16549    4.2    7.7   0.3   0.3   0.3   0.3   0.3   0.2   0.3   0.3   0.0   0.0   0.1   0.6   0.7   0.6   0.6  0.61  0.32  0.14  0.00  0.00  102.46   96.51    0.02    0.00    0.97
 1993 017   163     2     2     0.7   12.3   16548    4.3    8.0   0.4   0.3   0.3   0.3   0.3   0.2   0.3   0.3   0.0   0.0   0.1   0.7   0.8   0.6   0.6  0.61  0.32  0.14  0.00  0.00  103.43   96.81    0.02    0.00    0.97
 1993 018   164     2     2     0.7   12.3   16547    4.5    7.8   0.4   0.5   0.3   0.3   0.3   0.2   0.3   0.3   0.0   0.0   0.1   0.5   0.8   0.6   0.6  0.62  0.32  0.14  0.00  0.00  104.36   97.33    0.02    0.00    0.98
 1993 019   165     2     2     0.7   12.2   16547    4.6    7.7   0.4   0.4   0.3   0.3   0.3   0.3   0.3   0.3   0.0   0.0   0.1   0.5   0.6   0.6   0.6  0.62  0.33  0.14  0.00  0.00  105.24   97.89    0.02    0.00    0.98
 1993 020   166     2     2     0.7   13.1   16546    5.2    7.9   0.6   0.6   0.4   0.3   0.3   0.3   0.3   0.3   0.0   0.0   0.1   0.5   0.7   0.6   0.6  0.64  0.33  0.14  0.00  0.00  106.11   98.55    0.02    0.00    0.98
 1993 021   167     2     2     0.7   14.0   16545    5.9    8.1   0.8   0.7   0.5   0.4   0.3   0.3   0.3   0.3   0.0   0.0   0.1   0.5   0.8   0.6   0.6  0.66  0.33  0.14  0.00  0.00  106.98   99.21    0.02    0.00    0.98
 1993 022   168     2     2     0.7   14.9   16545    6.6    8.3   0.9   0.9   0.6   0.4   0.4   0.3   0.3   0.3   0.0   0.0   0.1   0.5   0.8   0.6   0.6  0.68  0.34  0.14  0.00  0.00  107.86   99.91    0.02    0.00    0.99
