*WATER BALANCE OUTPUT FILE

*DSSAT Cropping System Model Ver. 4.0.2.000               Aug 11, 2016; 15:43:00

*RUN   1        : UYMZ                    
 MODEL          : MZCER040 - Maize           
 EXPERIMENT     : UYMZ0144 MZ    late to create DSS                             
 TREATMENT  1   : UYMZ                    


     WATER BALANCE PARAMETERS
     ========================                  --mm--

     Soil H20 (start) on Year/day 1990/220     490.84
     Soil H20 (final) on Year/day 1991/022     522.12
     Effective Irrigation                      101.42
     Precipitation                             751.80
     Drainage                                  175.11
     Runoff                                      5.81
     Soil Evaporation                          194.92
     Transpiration                             446.11
     Potential ET                              732.91

     Final Balance                             0.0000


*DSSAT Cropping System Model Ver. 4.0.2.000               Aug 11, 2016; 15:43:00

*RUN   2        : UYMZ                    
 MODEL          : MZCER040 - Maize           
 EXPERIMENT     : UYMZ0144 MZ    late to create DSS                             
 TREATMENT  1   : UYMZ                    


     WATER BALANCE PARAMETERS
     ========================                  --mm--

     Soil H20 (start) on Year/day 1991/220     490.84
     Soil H20 (final) on Year/day 1992/014     482.97
     Effective Irrigation                      133.62
     Precipitation                             617.30
     Drainage                                  186.28
     Runoff                                     13.12
     Soil Evaporation                          157.85
     Transpiration                             401.54
     Potential ET                              637.87

     Final Balance                             0.0003


*DSSAT Cropping System Model Ver. 4.0.2.000               Aug 11, 2016; 15:43:00

*RUN   3        : UYMZ                    
 MODEL          : MZCER040 - Maize           
 EXPERIMENT     : UYMZ0144 MZ    late to create DSS                             
 TREATMENT  1   : UYMZ                    


     WATER BALANCE PARAMETERS
     ========================                  --mm--

     Soil H20 (start) on Year/day 1992/220     490.84
     Soil H20 (final) on Year/day 1993/022     531.32
     Effective Irrigation                      223.14
     Precipitation                             534.70
     Drainage                                   64.63
     Runoff                                     17.55
     Soil Evaporation                          185.71
     Transpiration                             449.47
     Potential ET                              744.35

     Final Balance                            -0.0001

