*SOIL NITROGEN DAILY OUTPUT FILE

*DSSAT Cropping System Model Ver. 4.0.2.000               Aug 11, 2016; 15:43:00

*RUN   1        : UYMZ                    
 MODEL          : MZCER040 - Maize           
 EXPERIMENT     : UYMZ0144 MZ    late to create DSS                             
 TREATMENT  1   : UYMZ                    

@YEAR DOY   DAS  NAPC  NI#M    NLCC   NIAD    NOAD   NITD   NHTD  NI1D  NI2D  NI3D  NI4D  NI5D  NI6D  NI7D  NI8D  NI9D  NI10  NH1D  NH2D  NH3D  NH4D  NH5D  NH6D  NH7D  NH8D  NH9D  NH10    NMNC    NITC    NDNC    NIMC    AMLC
 1990 220     0     0     0     0.0   99.5   16645   77.2   22.3  16.6  15.4  15.2   8.6   4.6   0.0   0.1   0.1   0.0   0.0   0.0   1.2   1.5   1.4   1.4  1.50  1.46  1.45  0.00  0.00    0.73    2.41    0.00    0.00    0.00
 1990 221     1     0     0     0.0  100.2   16645   78.6   21.6  16.6  15.7  15.4   8.7   4.7   0.0   0.1   0.1   0.0   0.0   0.1   1.0   1.4   1.4   1.4  1.51  1.42  1.40  0.00  0.00    1.44    3.78    0.00    0.00    0.00
 1990 222     2     0     0     0.0  100.9   16644   79.9   21.0  16.8  16.0  15.5   8.8   4.8   0.1   0.2   0.2   0.0   0.0   0.1   0.9   1.4   1.3   1.3  1.51  1.39  1.36  0.00  0.00    2.14    5.08    0.00    0.00    0.00
 1990 223     3     0     0     0.0  101.6   16643   81.1   20.5   6.0  16.4  19.2   8.9   4.8   0.1   0.2   0.2   0.0   0.0   0.1   0.8   1.4   1.2   1.3  1.51  1.36  1.32  0.00  0.00    2.81    6.27    0.00    0.00    0.00
 1990 224     4     0     0     0.0  102.2   16643   82.0   20.2   6.2  15.9  19.7   9.1   4.9   0.1   0.2   0.3   0.0   0.0   0.1   0.9   1.3   1.2   1.2  1.52  1.32  1.27  0.00  0.00    3.48    7.23    0.00    0.00    0.00
 1990 225     5     0     0     0.0  102.9   16642   83.2   19.7   6.3  16.0  19.8   9.2   5.0   0.1   0.3   0.3   0.0   0.0   0.1   0.8   1.3   1.1   1.2  1.52  1.29  1.23  0.00  0.00    4.17    8.40    0.00    0.00    0.00
 1990 226     6     0     0     0.0  103.6   16641   84.3   19.3   6.4  16.2  19.9   9.4   5.0   0.1   0.3   0.3   0.0   0.0   0.1   0.7   1.3   1.1   1.1  1.52  1.26  1.19  0.00  0.00    4.86    9.54    0.00    0.00    0.00
 1990 227     7     0     0     0.0  104.3   16640   85.5   18.9   3.4  13.9  21.8  10.3   5.1   0.2   0.4   0.4   0.0   0.0   0.1   0.6   1.3   1.1   1.1  1.53  1.23  1.16  0.00  0.00    5.58   10.66    0.00    0.00    0.00
 1990 228     8     0     0     0.0  105.0   16640   86.1   18.9   3.4  13.7  21.2  11.1   5.1   0.2   0.4   0.4   0.0   0.0   0.2   0.7   1.4   1.0   1.1  1.53  1.20  1.12  0.00  0.00    6.27   11.30    0.00    0.00    0.00
 1990 229     9     0     0     0.0  105.7   16639   86.8   18.8   3.7  13.6  20.9  11.5   5.2   0.2   0.5   0.5   0.0   0.0   0.1   0.8   1.5   1.0   1.0  1.53  1.17  1.09  0.00  0.00    6.92   12.02    0.00    0.00    0.00
 1990 230    10     0     0     0.0  106.3   16639   87.6   18.6   4.2  13.6  20.8  11.7   5.3   0.2   0.5   0.5   0.0   0.0   0.1   0.8   1.5   1.0   1.0  1.53  1.15  1.05  0.00  0.00    7.53   12.83    0.00    0.00    0.00
 1990 231    11     0     0     0.0  106.9   16638   88.6   18.3   4.6  13.6  20.9  11.8   5.3   0.2   0.5   0.5   0.0   0.0   0.1   0.7   1.5   0.9   1.0  1.54  1.12  1.02  0.00  0.00    8.11   13.74    0.00    0.00    0.00
 1990 232    12     0     0     0.0  107.4   16637   89.4   18.0   5.0  13.6  20.9  11.9   5.4   0.3   0.6   0.6   0.0   0.0   0.1   0.7   1.5   0.9   1.0  1.54  1.10  0.99  0.00  0.00    8.67   14.60    0.00    0.00    0.00
 1990 233    13     0     0     0.0  108.0   16637   90.3   17.7   5.3  13.6  21.0  12.1   5.4   0.3   0.6   0.6   0.0   0.0   0.1   0.6   1.4   0.9   0.9  1.54  1.08  0.96  0.00  0.00    9.25   15.46    0.00    0.00    0.00
 1990 234    14     0     0     0.0  108.4   16636   90.9   17.5   5.6  13.5  21.1  12.2   5.5   0.3   0.6   0.6   0.0   0.0   0.1   0.6   1.4   0.9   0.9  1.54  1.05  0.93  0.00  0.00    9.83   16.32    0.00    0.00    0.00
 1990 235    15     0     0     0.0  109.0   16636   91.8   17.2   5.9  13.5  21.2  12.2   5.5   0.3   0.7   0.7   0.0   0.0   0.1   0.6   1.4   0.8   0.9  1.55  1.03  0.91  0.00  0.00   10.41   17.13    0.00    0.00    0.00
 1990 236    16     0     0     0.0  109.5   16635   92.5   17.0   6.1  13.5  21.2  12.3   5.6   0.3   0.7   0.7   0.0   0.0   0.1   0.6   1.4   0.8   0.9  1.55  1.01  0.88  0.00  0.00   10.96   17.91    0.00    0.00    0.00
 1990 237    17     0     0     0.0  110.0   16635   93.3   16.8   6.4  13.5  21.3  12.4   5.6   0.3   0.7   0.7   0.0   0.0   0.1   0.6   1.3   0.8   0.9  1.55  0.99  0.86  0.00  0.00   11.49   18.64    0.00    0.00    0.00
 1990 238    18     0     0     0.0  110.6   16634   94.0   16.6   6.6  13.5  21.4  12.5   5.7   0.4   0.8   0.8   0.0   0.0   0.1   0.6   1.3   0.8   0.8  1.55  0.97  0.83  0.00  0.00   12.03   19.38    0.00    0.00    0.00
 1990 239    19     0     0     0.0  111.1   16633   94.7   16.4   2.8   9.9  20.3  14.8   7.7   0.4   0.8   0.8   0.0   0.0   0.1   0.5   1.3   0.8   0.8  1.56  0.95  0.81  0.00  0.00   12.59   20.12    0.00    0.00    0.00
 1990 240    20     0     0     0.0  111.7   16633   95.0   16.7   2.7   9.7  20.0  14.6   8.0   0.6   0.8   0.8   0.0   0.0   0.2   0.6   1.4   0.8   0.8  1.56  0.93  0.78  0.00  0.00   13.14   20.41    0.00    0.00    0.00
 1990 241    21     0     0     0.1  112.1   16632   95.2   16.9   2.8   9.6  19.7  14.3   8.2   0.8   0.8   0.8   0.0   0.0   0.1   0.7   1.5   0.8   0.9  1.57  0.92  0.76  0.00  0.00   13.66   20.72    0.00    0.00    0.00
 1990 242    22     0     0     0.2  112.5   16632   95.5   17.0   3.1   9.6  19.5  14.1   8.3   0.9   0.9   0.9   0.0   0.0   0.1   0.7   1.5   0.9   0.9  1.59  0.92  0.74  0.00  0.00   14.17   21.08    0.00    0.00    0.00
 1990 243    23     0     0     0.2  113.0   16631   95.7   17.2   3.5   9.5  19.5  14.0   8.3   1.0   0.9   0.9   0.0   0.0   0.1   0.6   1.6   0.9   0.9  1.60  0.92  0.74  0.00  0.00   14.67   21.40    0.00    0.00    0.00
 1990 244    24     0     0     0.2  113.4   16631   96.1   17.2   3.9   9.5  19.6  13.9   8.3   1.0   0.9   0.9   0.0   0.0   0.1   0.6   1.6   0.9   0.9  1.61  0.92  0.73  0.00  0.00   15.10   21.82    0.03    0.00    0.00
 1990 245    25     0     0     0.2  113.7   16631   96.5   17.3   4.1   9.5  19.6  13.9   8.3   1.0   0.9   0.9   0.0   0.0   0.1   0.6   1.5   0.9   0.9  1.63  0.92  0.73  0.00  0.00   15.50   22.19    0.04    0.00    0.00
 1990 246    26     0     0     0.2  114.1   16630   96.8   17.3   4.4   9.6  19.7  14.0   8.3   1.0   0.9   0.9   0.0   0.0   0.1   0.6   1.5   0.9   0.9  1.64  0.92  0.72  0.00  0.00   15.90   22.57    0.06    0.00    0.00
 1990 247    27     0     0     0.2  114.5   16630   97.2   17.3   4.6   9.6  19.8  14.0   8.3   1.1   0.9   0.9   0.0   0.0   0.1   0.6   1.5   0.9   0.9  1.65  0.93  0.72  0.00  0.00   16.31   22.95    0.07    0.00    0.00
 1990 248    28     0     0     0.2  114.9   16629   97.6   17.3   4.8   9.7  19.8  14.0   8.3   1.1   0.9   0.9   0.0   0.0   0.1   0.5   1.4   0.9   1.0  1.67  0.93  0.71  0.00  0.00   16.70   23.36    0.07    0.00    0.00
 1990 249    29     0     0     0.2  115.3   16629   98.1   17.3   5.1   9.7  19.8  14.1   8.3   1.1   0.9   0.9   0.0   0.0   0.1   0.5   1.4   0.9   1.0  1.68  0.93  0.71  0.00  0.00   17.12   23.80    0.08    0.00    0.00
 1990 250    30     0     0     0.2  115.8   16628   98.5   17.3   4.6  10.1  19.9  14.1   8.4   1.1   0.9   0.9   0.0   0.0   0.1   0.5   1.4   0.9   1.0  1.69  0.93  0.70  0.00  0.00   17.57   24.25    0.08    0.00    0.00
 1990 251    31     0     0     0.2  116.2   16628   98.9   17.4   2.8   8.6  19.6  15.2   8.9   1.2   0.9   1.0   0.0   0.0   0.2   0.6   1.4   0.9   1.0  1.70  0.93  0.70  0.00  0.00   18.05   24.63    0.09    0.00    0.00
 1990 252    32     0     0     0.4  116.5   16628   98.8   17.7   2.8   8.5  19.1  14.8   9.1   1.4   1.0   1.0   0.0   0.0   0.2   0.6   1.4   0.9   1.0  1.72  0.94  0.70  0.00  0.00   18.51   24.77    0.12    0.00    0.00
 1990 253    33     0     0     0.5  116.8   16627   98.9   17.9   3.1   8.4  18.8  14.6   9.2   1.6   1.0   1.0   0.0   0.0   0.2   0.7   1.5   0.9   1.0  1.73  0.94  0.69  0.00  0.00   19.01   25.02    0.14    0.00    0.00
 1990 254    34     0     0     0.6  117.2   16626   99.1   18.1   2.0   7.1  17.6  14.9  10.3   2.0   1.1   1.0   0.0   0.0   0.1   0.7   1.6   0.9   1.0  1.75  0.94  0.69  0.00  0.00   19.56   25.39    0.16    0.00    0.00
 1990 255    35     0     0     0.8  117.1   16626   98.6   18.5   2.1   6.9  17.1  14.4  10.2   2.3   1.2   1.0   0.0   0.0   0.1   0.7   1.6   1.0   1.1  1.76  0.94  0.68  0.00  0.00   20.13   25.60    0.26    0.00    0.00
 1990 256    36     0     0     1.0  116.8   16625   98.0   18.8   2.2   6.7  16.7  14.1  10.2   2.4   1.2   1.0   0.0   0.0   0.1   0.8   1.7   1.0   1.1  1.78  0.94  0.68  0.00  0.00   20.70   25.83    0.52    0.00    0.00
 1990 257    37     0     0     1.1  117.0   16625   98.1   18.9   2.4   6.8  16.6  14.0  10.1   2.5   1.3   1.0   0.0   0.0   0.1   0.8   1.8   1.0   1.1  1.79  0.95  0.68  0.00  0.00   21.25   26.23    0.65    0.00    0.00
 1990 258    38     0     0     1.1  117.4   16624   98.5   18.9   2.7   6.8  16.7  13.9  10.1   2.6   1.3   1.0   0.0   0.0   0.1   0.7   1.7   1.0   1.1  1.80  0.95  0.67  0.00  0.00   21.76   26.76    0.70    0.00    0.00
 1990 259    39     0     0     1.1  117.8   16624   98.9   18.9   3.0   6.8  16.8  13.9  10.1   2.6   1.3   1.0   0.0   0.0   0.1   0.7   1.7   1.0   1.1  1.82  0.95  0.67  0.00  0.00   22.23   27.24    0.72    0.00    0.00
 1990 260    40     0     0     1.1  118.1   16623   99.2   18.9   3.2   6.9  16.8  13.9  10.1   2.6   1.3   1.1   0.0   0.0   0.1   0.6   1.6   1.0   1.1  1.83  0.95  0.66  0.00  0.00   22.69   27.71    0.74    0.00    0.00
 1990 261    41     0     0     1.2  118.3   16623   99.4   18.9   1.7   5.5  15.4  14.3  11.2   3.0   1.4   1.1   0.0   0.0   0.1   0.6   1.6   1.1   1.1  1.84  0.95  0.66  0.00  0.00   23.17   28.18    0.75    0.00    0.00
 1990 262    42     0     0     1.5  118.0   16622   98.7   19.2   1.7   5.4  15.0  13.8  11.0   3.3   1.5   1.1   0.0   0.0   0.2   0.7   1.6   1.1   1.2  1.85  0.95  0.66  0.00  0.00   23.67   28.33    0.97    0.00    0.00
 1990 263    43     0     0     1.7  117.8   16622   98.3   19.5   1.8   5.3  14.6  13.5  10.9   3.4   1.6   1.1   0.0   0.0   0.1   0.8   1.7   1.1   1.2  1.87  0.96  0.65  0.00  0.00   24.19   28.57    1.10    0.00    0.00
 1990 264    44     0     0     1.8  117.9   16621   98.3   19.6   2.0   5.4  14.5  13.3  10.8   3.5   1.7   1.2   0.0   0.0   0.1   0.7   1.7   1.1   1.2  1.88  0.96  0.65  0.00  0.00   24.72   28.95    1.18    0.00    0.00
 1990 265    45     0     0     1.8  118.0   16621   98.5   19.6   2.2   5.4  14.5  13.3  10.8   3.5   1.7   1.2   0.0   0.0   0.1   0.7   1.7   1.1   1.2  1.90  0.96  0.65  0.00  0.00   25.24   29.49    1.23    0.00    0.00
 1990 266    46     0     0     1.8  117.6   16620   98.2   19.5   2.4   5.3  14.3  13.2  10.8   3.6   1.7   1.2   0.0   0.0   0.1   0.6   1.6   1.1   1.2  1.91  0.96  0.64  0.00  0.00   25.76   30.03    1.26    0.00    0.00
 1990 267    47     0     0     1.8  117.5   16620   98.1   19.5   2.5   5.3  14.1  13.2  10.8   3.6   1.7   1.2   0.0   0.0   0.1   0.6   1.6   1.2   1.2  1.92  0.96  0.64  0.00  0.00   26.27   30.53    1.28    0.00    0.00
 1990 268    48     0     0     1.8  117.7   16619   98.2   19.4   2.7   5.3  14.0  13.3  10.8   3.6   1.8   1.2   0.0   0.0   0.1   0.6   1.5   1.2   1.2  1.93  0.96  0.63  0.00  0.00   26.77   31.02    1.29    0.00    0.00
 1990 269    49     0     0     1.8  117.8   16619   98.5   19.4   2.9   5.4  14.0  13.3  10.8   3.6   1.8   1.2   0.0   0.0   0.1   0.6   1.5   1.1   1.2  1.95  0.96  0.63  0.00  0.00   27.26   31.57    1.30    0.00    0.00
 1990 270    50     0     0     1.8  118.0   16618   98.7   19.3   3.0   5.4  13.9  13.4  10.8   3.6   1.8   1.2   0.0   0.0   0.1   0.6   1.4   1.1   1.2  1.96  0.97  0.63  0.00  0.00   27.74   32.11    1.32    0.00    0.00
 1990 271    51     0     0     1.8  117.9   16618   98.7   19.2   3.2   5.5  13.8  13.4  10.8   3.6   1.8   1.2   0.0   0.0   0.1   0.6   1.4   1.1   1.3  1.97  0.97  0.62  0.00  0.00   28.25   32.67    1.33    0.00    0.00
 1990 272    52     0     0     1.8  118.0   16617   98.8   19.2   3.3   5.5  13.7  13.4  10.8   3.6   1.8   1.2   0.0   0.0   0.1   0.5   1.4   1.0   1.3  1.98  0.97  0.62  0.00  0.00   28.80   33.25    1.34    0.00    0.00
 1990 273    53     0     0     1.8  117.4   16617   98.3   19.1   3.4   5.4  13.3  13.4  10.9   3.6   1.8   1.3   0.0   0.0   0.1   0.5   1.3   1.0   1.3  2.00  0.97  0.62  0.00  0.00   29.37   33.85    1.35    0.00    0.00
 1990 274    54     0     0     1.8  116.9   16616   97.9   19.0   3.5   5.4  13.0  13.4  10.9   3.6   1.8   1.3   0.0   0.0   0.1   0.5   1.3   1.0   1.3  2.01  0.97  0.61  0.00  0.00   29.98   34.49    1.36    0.00    0.00
 1990 275    55     0     0     1.8  116.3   16615   97.4   18.9   3.6   5.4  12.7  13.4  10.9   3.6   1.8   1.3   0.0   0.0   0.1   0.5   1.2   0.9   1.3  2.03  0.97  0.61  0.00  0.00   30.63   35.16    1.37    0.00    0.00
 1990 276    56     0     0     1.8  114.9   16615   96.1   18.8   3.5   5.3  12.1  13.2  10.9   3.6   1.8   1.3   0.0   0.0   0.1   0.5   1.2   0.9   1.3  2.04  0.97  0.61  0.00  0.00   31.27   35.82    1.38    0.00    0.00
 1990 277    57     0     0     1.8  114.0   16614   95.4   18.7   3.6   5.2  11.7  13.1  11.0   3.6   1.8   1.3   0.0   0.0   0.1   0.5   1.2   0.9   1.3  2.05  0.98  0.60  0.00  0.00   31.95   36.61    1.38    0.00    0.00
 1990 278    58     0     0     1.8  112.9   16613   94.4   18.5   3.6   5.1  11.3  12.9  11.1   3.6   1.8   1.3   0.0   0.0   0.1   0.5   1.1   0.8   1.2  2.07  0.98  0.60  0.00  0.00   32.65   37.43    1.39    0.00    0.00
 1990 279    59     0     0     1.8  112.3   16613   94.0   18.3   2.1   5.2  11.5  12.8  11.2   3.6   1.9   1.3   0.0   0.0   0.1   0.5   1.1   0.8   1.2  2.08  0.98  0.60  0.00  0.00   33.33   38.20    1.39    0.00    0.00
 1990 280    60     0     0     1.8  111.6   16612   93.2   18.4   1.8   4.9  11.3  12.7  11.2   3.6   1.9   1.3   0.0   0.0   0.2   0.6   1.1   0.8   1.1  2.10  0.98  0.59  0.00  0.00   34.01   38.75    1.40    0.00    0.00
 1990 281    61     0     0     2.0  108.4   16611   89.8   18.6   0.6   2.9   7.9  10.6  11.8   5.0   2.5   1.6   0.0   0.0   0.3   0.7   1.1   0.8   1.1  2.11  0.98  0.59  0.00  0.00   34.68   39.15    1.41    0.00    0.00
 1990 282    62     0     0     2.8  106.5   16611   87.7   18.8   0.8   2.8   7.2  10.0  11.4   5.1   2.7   1.7   0.0   0.0   0.1   0.7   1.2   0.8   1.1  2.13  0.99  0.59  0.00  0.00   35.31   39.44    1.51    0.00    0.00
 1990 283    63     0     0     3.2  103.9   16610   84.9   19.0   0.9   2.5   6.5   9.4  11.1   5.2   2.8   1.7   0.0   0.0   0.1   0.8   1.2   0.8   1.1  2.14  0.99  0.59  0.00  0.00   35.91   39.67    1.57    0.00    0.00
 1990 284    64     0     0     3.4  101.9   16610   83.0   18.9   1.0   2.5   6.1   9.0  10.8   5.1   2.8   1.7   0.0   0.0   0.1   0.7   1.1   0.8   1.1  2.16  0.99  0.59  0.00  0.00   36.52   40.23    1.60    0.00    0.00
 1990 285    65     0     0     3.6  101.0   16609   82.1   18.9   0.5   1.8   5.0   7.9  10.5   5.9   3.3   1.9   0.0   0.0   0.1   0.7   1.1   0.8   1.1  2.17  1.00  0.59  0.00  0.00   37.13   40.76    1.63    0.00    0.00
 1990 286    66     0     0     4.3   96.7   16608   77.6   19.0   0.5   1.5   4.2   7.1   9.6   5.9   3.4   2.0   0.0   0.0   0.1   0.7   1.1   0.8   1.1  2.18  1.00  0.59  0.00  0.00   37.72   40.96    1.88    0.00    0.00
 1990 287    67     0     0     4.8   93.8   16608   74.9   18.9   0.6   1.5   3.7   6.7   9.0   5.8   3.5   2.1   0.0   0.0   0.1   0.6   1.0   0.8   1.1  2.20  1.01  0.58  0.00  0.00   38.33   41.46    2.02    0.00    0.00
 1990 288    68     0     0     5.0   90.8   16607   72.1   18.7   0.6   1.4   3.2   6.2   8.4   5.8   3.5   2.1   0.0   0.0   0.1   0.6   0.9   0.8   1.1  2.21  1.01  0.58  0.00  0.00   38.94   41.96    2.10    0.00    0.00
 1990 289    69     0     0     5.1   87.9   16607   69.4   18.5   0.6   1.3   2.7   5.9   7.9   5.8   3.5   2.1   0.0   0.0   0.1   0.6   0.9   0.8   1.1  2.23  1.01  0.58  0.00  0.00   39.54   42.51    2.13    0.00    0.00
 1990 290    70     0     0     5.2   85.3   16606   67.0   18.3   0.6   1.1   2.3   5.5   7.5   5.8   3.5   2.2   0.0   0.0   0.1   0.5   0.8   0.8   1.0  2.24  1.01  0.58  0.00  0.00   40.14   43.11    2.14    0.00    0.00
 1990 291    71     0     0     5.2   84.2   16605   66.0   18.2   0.7   1.1   2.1   5.3   7.2   5.8   3.5   2.2   0.0   0.0   0.1   0.5   0.8   0.7   1.0  2.25  1.01  0.57  0.00  0.00   40.73   43.70    2.15    0.00    0.00
 1990 292    72     0     0     5.2   79.9   16605   62.1   17.8   0.5   0.9   1.5   4.7   6.5   5.8   3.5   2.2   0.0   0.0   0.1   0.5   0.7   0.7   0.9  2.26  1.01  0.57  0.00  0.00   41.33   44.28    2.16    0.00    0.00
 1990 293    73     0     0     5.2   77.2   16604   59.4   17.7   0.4   0.8   1.1   4.2   5.9   5.8   3.5   2.2   0.0   0.0   0.2   0.5   0.7   0.7   0.8  2.28  1.01  0.57  0.00  0.00   41.95   44.79    2.17    0.00    0.00
 1990 294    74     0     0     5.2   73.9   16604   56.4   17.5   0.5   0.6   0.8   3.7   5.2   5.8   3.6   2.2   0.0   0.0   0.1   0.5   0.7   0.6   0.8  2.29  1.02  0.57  0.00  0.00   42.58   45.40    2.18    0.00    0.00
 1990 295    75     0     0     5.2   69.6   16603   52.5   17.1   0.4   0.4   0.5   3.1   4.4   5.6   3.6   2.2   0.0   0.0   0.1   0.5   0.6   0.6   0.7  2.26  1.02  0.56  0.00  0.00   43.23   45.97    2.18    0.00    0.00
 1990 296    76     0     0     5.2   64.9   16602   48.4   16.5   0.4   0.4   0.3   2.6   3.8   5.3   3.6   2.2   0.0   0.0   0.1   0.5   0.6   0.6   0.7  2.15  1.02  0.56  0.00  0.00   43.90   46.54    2.19    0.00    0.00
 1990 297    77     0     0     5.2   61.5   16602   45.6   16.0   0.4   0.4   0.3   2.3   3.4   4.9   3.6   2.2   0.0   0.0   0.1   0.5   0.6   0.6   0.6  2.03  1.02  0.56  0.00  0.00   44.56   47.10    2.20    0.00    0.00
 1990 298    78     0     0     5.2   57.8   16601   42.6   15.3   0.4   0.4   0.3   2.0   3.0   4.4   3.6   2.2   0.0   0.0   0.1   0.5   0.6   0.6   0.6  1.89  1.02  0.55  0.00  0.00   45.19   47.71    2.20    0.00    0.00
 1990 299    79     0     0     5.2   55.2   16600   40.4   14.8   0.4   0.4   0.3   1.8   2.7   4.1   3.6   2.2   0.0   0.0   0.1   0.5   0.6   0.5   0.6  1.77  1.02  0.55  0.00  0.00   45.81   48.31    2.20    0.00    0.00
 1990 300    80     0     0     5.2   49.4   16600   35.7   13.7   0.4   0.4   0.3   1.4   2.2   3.4   3.6   2.2   0.0   0.0   0.1   0.5   0.6   0.5   0.6  1.55  1.02  0.55  0.00  0.00   46.42   48.91    2.20    0.00    0.00
 1990 301    81     0     0     5.2   44.8   16599   32.0   12.8   0.4   0.4   0.3   1.1   1.7   2.8   3.6   2.2   0.0   0.0   0.1   0.4   0.6   0.5   0.6  1.37  1.02  0.55  0.00  0.00   47.02   49.48    2.21    0.00    0.00
 1990 302    82     0     0     5.2   42.4   16599   30.0   12.4   0.4   0.4   0.3   1.0   1.5   2.5   3.6   2.2   0.0   0.0   0.1   0.4   0.6   0.5   0.5  1.27  1.02  0.55  0.00  0.00   47.60   50.03    2.21    0.00    0.00
 1990 303    83     0     0     5.2   39.1   16598   27.4   11.8   0.2   0.4   0.3   0.8   1.2   2.1   3.6   2.2   0.0   0.0   0.1   0.4   0.6   0.5   0.5  1.14  1.02  0.54  0.00  0.00   48.21   50.58    2.21    0.00    0.00
 1990 304    84     0     0     5.2   36.7   16597   25.2   11.5   0.4   0.3   0.3   0.6   1.0   1.7   3.6   2.3   0.0   0.0   0.1   0.5   0.6   0.5   0.5  1.03  1.03  0.54  0.00  0.00   48.89   51.04    2.21    0.00    0.00
 1990 305    85     0     0     5.2   34.6   16597   23.6   11.1   0.4   0.4   0.3   0.5   0.8   1.4   3.7   2.3   0.0   0.0   0.1   0.5   0.6   0.5   0.5  0.95  1.03  0.54  0.00  0.00   49.56   51.64    2.22    0.00    0.00
 1990 306    86     0     0     5.2   32.9   16596   22.1   10.8   0.3   0.4   0.3   0.4   0.6   1.2   3.7   2.3   0.0   0.0   0.2   0.5   0.6   0.5   0.5  0.88  1.03  0.54  0.00  0.00   50.22   52.14    2.22    0.00    0.00
 1990 307    87     0     0     5.2   31.7   16595   21.2   10.5   0.5   0.4   0.3   0.3   0.5   1.0   3.7   2.3   0.0   0.0   0.1   0.5   0.6   0.5   0.5  0.82  1.03  0.53  0.00  0.00   50.88   52.79    2.22    0.00    0.00
 1990 308    88     0     0     5.2   30.5   16595   20.2   10.3   0.1   0.4   0.4   0.3   0.4   0.8   3.7   2.3   0.0   0.0   0.1   0.5   0.6   0.5   0.5  0.78  1.03  0.53  0.00  0.00   51.54   53.33    2.22    0.00    0.00
 1990 309    89     0     0     5.2   29.7   16594   19.2   10.5   0.1   0.3   0.3   0.3   0.4   0.7   3.7   2.3   0.0   0.0   0.2   0.6   0.7   0.5   0.5  0.74  1.03  0.53  0.00  0.00   52.23   53.60    2.22    0.00    0.00
 1990 310    90     0     0     5.2   29.2   16593   18.9   10.3   0.4   0.3   0.3   0.3   0.3   0.6   3.7   2.3   0.0   0.0   0.1   0.6   0.7   0.5   0.5  0.71  1.01  0.53  0.00  0.00   52.89   54.06    2.22    0.00    0.00
 1990 311    91     0     0     5.2   28.7   16593   18.8    9.9   0.4   0.4   0.3   0.3   0.3   0.5   3.8   2.3   0.0   0.0   0.1   0.5   0.6   0.5   0.5  0.68  0.99  0.52  0.00  0.00   53.53   54.65    2.22    0.00    0.00
 1990 312    92     0     0     5.2   28.2   16592   18.4    9.8   0.3   0.4   0.3   0.3   0.3   0.4   3.8   2.3   0.0   0.0   0.2   0.5   0.6   0.5   0.5  0.66  0.97  0.52  0.00  0.00   54.16   55.14    2.22    0.00    0.00
 1990 313    93     0     0     5.2   27.9   16592   18.3    9.6   0.4   0.4   0.3   0.3   0.3   0.3   3.8   2.3   0.0   0.0   0.1   0.5   0.6   0.5   0.5  0.64  0.95  0.52  0.00  0.00   54.73   55.68    2.23    0.00    0.00
 1990 314    94     0     0     5.2   27.6   16591   18.1    9.5   0.4   0.4   0.3   0.3   0.3   0.3   3.8   2.3   0.0   0.0   0.1   0.5   0.6   0.5   0.5  0.62  0.93  0.52  0.00  0.00   55.30   56.17    2.23    0.00    0.00
 1990 315    95     0     0     5.2   27.5   16591   18.1    9.4   0.4   0.4   0.3   0.3   0.3   0.3   3.9   2.3   0.0   0.0   0.1   0.5   0.6   0.5   0.5  0.61  0.92  0.52  0.00  0.00   55.89   56.68    2.23    0.00    0.00
 1990 316    96     0     0     5.2   27.5   16590   18.3    9.3   0.4   0.4   0.3   0.3   0.3   0.3   3.9   2.3   0.0   0.0   0.1   0.5   0.6   0.5   0.5  0.60  0.90  0.51  0.00  0.00   56.50   57.21    2.23    0.00    0.00
 1990 317    97     0     0     5.2   27.5   16589   18.3    9.2   0.4   0.4   0.3   0.3   0.3   0.3   3.9   2.3   0.0   0.0   0.1   0.5   0.6   0.5   0.5  0.59  0.88  0.51  0.00  0.00   57.11   57.74    2.23    0.00    0.00
 1990 318    98     0     0     5.2   27.3   16589   18.2    9.1   0.4   0.4   0.3   0.3   0.3   0.3   3.8   2.3   0.0   0.0   0.1   0.5   0.6   0.5   0.5  0.59  0.85  0.51  0.00  0.00   57.78   58.34    2.23    0.00    0.00
 1990 319    99     0     0     5.2   26.1   16588   17.2    8.9   0.4   0.4   0.3   0.3   0.3   0.3   3.4   2.3   0.0   0.0   0.1   0.5   0.6   0.5   0.5  0.58  0.80  0.51  0.00  0.00   58.48   59.00    2.23    0.00    0.00
 1990 320   100     0     0     5.2   24.9   16587   16.3    8.7   0.1   0.3   0.4   0.3   0.3   0.3   3.0   2.4   0.0   0.0   0.1   0.5   0.6   0.5   0.5  0.58  0.75  0.51  0.00  0.00   59.17   59.63    2.23    0.00    0.00
 1990 321   101     0     0     5.2   24.1   16587   15.1    9.0   0.2   0.3   0.3   0.3   0.3   0.3   2.7   2.4   0.0   0.0   0.2   0.6   0.7   0.5   0.5  0.57  0.70  0.50  0.00  0.00   59.91   59.86    2.23    0.00    0.00
 1990 322   102     0     0     5.2   23.4   16586   14.4    9.0   0.5   0.3   0.3   0.3   0.3   0.3   2.4   2.4   0.0   0.0   0.1   0.7   0.7   0.6   0.5  0.57  0.67  0.50  0.00  0.00   60.67   60.31    2.23    0.00    0.00
 1990 323   103     0     0     5.2   22.6   16585   14.0    8.6   0.3   0.4   0.3   0.3   0.3   0.3   2.1   2.4   0.0   0.0   0.1   0.5   0.6   0.5   0.5  0.57  0.64  0.50  0.00  0.00   61.42   60.95    2.23    0.00    0.00
 1990 324   104     0     0     5.2   21.9   16585   13.4    8.5   0.4   0.4   0.3   0.3   0.3   0.3   1.8   2.4   0.0   0.0   0.1   0.5   0.6   0.5   0.5  0.57  0.61  0.50  0.00  0.00   62.16   61.58    2.23    0.00    0.00
 1990 325   105     0     0     5.2   21.3   16584   12.9    8.4   0.4   0.4   0.3   0.3   0.3   0.3   1.6   2.4   0.0   0.0   0.1   0.5   0.6   0.5   0.5  0.57  0.59  0.50  0.00  0.00   62.93   62.21    2.23    0.00    0.00
 1990 326   106     0     0     5.2   20.9   16583   12.5    8.4   0.4   0.4   0.3   0.3   0.3   0.3   1.4   2.4   0.0   0.0   0.1   0.5   0.6   0.5   0.5  0.57  0.57  0.49  0.00  0.00   63.74   62.89    2.23    0.00    0.00
 1990 327   107     0     0     5.2   20.4   16582   12.2    8.3   0.4   0.4   0.3   0.3   0.3   0.3   1.3   2.4   0.0   0.0   0.1   0.5   0.6   0.5   0.5  0.56  0.55  0.48  0.00  0.00   64.55   63.59    2.23    0.00    0.00
 1990 328   108     0     0     5.2   20.0   16582   11.8    8.2   0.4   0.4   0.3   0.3   0.3   0.3   1.1   2.4   0.0   0.0   0.1   0.5   0.6   0.5   0.5  0.56  0.54  0.47  0.00  0.00   65.36   64.28    2.23    0.00    0.00
 1990 329   109     0     0     5.2   19.7   16581   11.5    8.1   0.4   0.4   0.3   0.3   0.3   0.3   1.0   2.4   0.0   0.0   0.1   0.5   0.6   0.5   0.5  0.56  0.53  0.46  0.00  0.00   66.12   64.94    2.23    0.00    0.00
 1990 330   110     0     0     5.2   19.3   16580   11.3    8.0   0.3   0.4   0.4   0.3   0.3   0.3   0.9   2.5   0.0   0.0   0.1   0.5   0.6   0.5   0.5  0.56  0.52  0.45  0.00  0.00   66.87   65.60    2.23    0.00    0.00
 1990 331   111     0     0     5.2   19.0   16579   10.8    8.2   0.3   0.3   0.3   0.3   0.3   0.3   0.8   2.4   0.0   0.0   0.2   0.6   0.6   0.5   0.5  0.56  0.51  0.44  0.00  0.00   67.61   66.02    2.23    0.00    0.00
 1990 332   112     0     0     5.2   18.6   16579   10.6    8.0   0.6   0.4   0.3   0.3   0.3   0.3   0.7   2.3   0.0   0.0   0.1   0.5   0.6   0.5   0.5  0.56  0.50  0.43  0.00  0.00   68.32   66.77    2.23    0.00    0.00
 1990 333   113     0     0     5.2   17.8   16578    9.9    7.9   0.3   0.4   0.3   0.3   0.3   0.3   0.6   2.2   0.0   0.0   0.1   0.5   0.6   0.5   0.5  0.56  0.49  0.42  0.00  0.00   68.99   67.32    2.23    0.00    0.00
 1990 334   114     0     0     5.2   17.4   16578    9.5    7.8   0.4   0.4   0.3   0.3   0.3   0.3   0.6   2.1   0.0   0.0   0.1   0.5   0.6   0.5   0.5  0.55  0.48  0.41  0.00  0.00   69.66   67.92    2.23    0.00    0.00
 1990 335   115     0     0     5.2   16.8   16577    9.1    7.8   0.4   0.4   0.3   0.3   0.3   0.3   0.5   1.9   0.0   0.0   0.1   0.5   0.6   0.5   0.5  0.55  0.48  0.40  0.00  0.00   70.30   68.48    2.23    0.00    0.00
 1990 336   116     0     0     5.2   16.4   16576    8.7    7.7   0.4   0.4   0.3   0.3   0.3   0.3   0.5   1.8   0.0   0.0   0.1   0.5   0.6   0.5   0.5  0.55  0.47  0.39  0.00  0.00   70.94   69.05    2.23    0.00    0.00
 1990 337   117     0     0     5.2   16.0   16576    8.3    7.6   0.3   0.4   0.3   0.3   0.3   0.3   0.4   1.7   0.0   0.0   0.1   0.5   0.6   0.5   0.5  0.55  0.46  0.38  0.00  0.00   71.56   69.62    2.23    0.00    0.00
 1990 338   118     0     0     5.2   15.6   16575    7.9    7.6   0.3   0.4   0.3   0.3   0.3   0.3   0.4   1.6   0.0   0.0   0.2   0.5   0.6   0.5   0.5  0.55  0.46  0.37  0.00  0.00   72.17   70.11    2.23    0.00    0.00
 1990 339   119     0     0     5.2   15.3   16575    7.8    7.5   0.5   0.4   0.3   0.3   0.3   0.3   0.3   1.5   0.0   0.0   0.1   0.5   0.6   0.5   0.5  0.55  0.45  0.36  0.00  0.00   72.77   70.74    2.23    0.00    0.00
 1990 340   120     0     0     5.2   14.9   16574    7.4    7.4   0.0   0.3   0.4   0.4   0.3   0.3   0.3   1.4   0.0   0.0   0.1   0.5   0.6   0.5   0.5  0.55  0.44  0.35  0.00  0.00   73.39   71.29    2.23    0.00    0.00
 1990 341   121     0     0     5.2   14.6   16573    6.8    7.8   0.0   0.1   0.2   0.2   0.3   0.3   0.3   1.4   0.0   0.0   0.2   0.6   0.7   0.5   0.5  0.54  0.44  0.35  0.00  0.00   74.06   71.52    2.23    0.00    0.00
 1990 342   122     0     0     5.2   14.6   16573    6.4    8.2   0.1   0.1   0.2   0.2   0.3   0.3   0.3   1.3   0.0   0.0   0.3   0.7   0.7   0.5   0.5  0.56  0.43  0.34  0.00  0.00   74.79   71.70    2.23    0.00    0.00
 1990 343   123     0     0     5.3   14.5   16572    6.3    8.2   0.6   0.2   0.2   0.2   0.3   0.2   0.3   1.2   0.0   0.0   0.0   0.7   0.7   0.6   0.5  0.57  0.42  0.33  0.00  0.00   75.55   72.15    2.23    0.00    0.00
 1990 344   124     0     0     6.3   13.3   16571    5.2    8.1   0.0   0.3   0.2   0.2   0.2   0.3   0.3   0.9   0.0   0.0   0.1   0.5   0.7   0.6   0.5  0.57  0.42  0.32  0.00  0.00   76.26   72.52    2.23    0.00    0.00
 1990 345   125     0     0     6.7   13.2   16571    4.7    8.4   0.0   0.3   0.2   0.2   0.2   0.2   0.2   0.7   0.0   0.0   0.2   0.6   0.8   0.6   0.6  0.58  0.43  0.32  0.00  0.00   76.89   72.61    2.24    0.00    0.00
 1990 346   126     0     0     6.8   13.2   16570    4.7    8.5   0.3   0.3   0.2   0.2   0.2   0.2   0.2   0.6   0.0   0.0   0.1   0.7   0.7   0.6   0.6  0.59  0.43  0.32  0.00  0.00   77.54   72.86    2.24    0.00    0.00
 1990 347   127     0     0     6.9   13.2   16569    4.7    8.5   0.4   0.3   0.2   0.2   0.2   0.2   0.2   0.6   0.0   0.0   0.1   0.7   0.7   0.6   0.6  0.59  0.44  0.32  0.00  0.00   78.17   73.05    2.24    0.00    0.00
 1990 348   128     0     0     6.9   13.1   16569    4.9    8.3   0.4   0.4   0.3   0.2   0.3   0.2   0.3   0.5   0.0   0.0   0.1   0.5   0.7   0.6   0.6  0.59  0.43  0.32  0.00  0.00   78.78   73.41    2.24    0.00    0.00
 1990 349   129     0     0     6.9   13.0   16568    5.1    8.0   0.4   0.4   0.3   0.3   0.3   0.2   0.3   0.5   0.0   0.0   0.1   0.5   0.6   0.6   0.6  0.58  0.43  0.31  0.00  0.00   79.41   73.95    2.24    0.00    0.00
 1990 350   130     0     0     6.9   12.9   16568    5.1    7.8   0.4   0.4   0.3   0.3   0.3   0.3   0.3   0.5   0.0   0.0   0.1   0.5   0.6   0.6   0.6  0.58  0.42  0.30  0.00  0.00   80.09   74.51    2.24    0.00    0.00
 1990 351   131     0     0     6.9   12.8   16567    5.1    7.7   0.4   0.4   0.3   0.3   0.3   0.3   0.3   0.5   0.0   0.0   0.1   0.5   0.6   0.5   0.5  0.58  0.42  0.30  0.00  0.00   80.79   75.09    2.24    0.00    0.00
 1990 352   132     0     0     6.9   12.7   16566    5.0    7.7   0.2   0.3   0.3   0.3   0.3   0.3   0.3   0.4   0.0   0.0   0.1   0.5   0.6   0.5   0.5  0.58  0.41  0.29  0.00  0.00   81.54   75.70    2.24    0.00    0.00
 1990 353   133     0     0     6.9   12.7   16566    4.6    8.1   0.2   0.3   0.3   0.3   0.3   0.3   0.3   0.4   0.0   0.0   0.2   0.6   0.7   0.6   0.6  0.58  0.41  0.28  0.00  0.00   82.30   75.87    2.24    0.00    0.00
 1990 354   134     0     0     6.9   12.9   16565    4.7    8.2   0.6   0.3   0.3   0.3   0.3   0.3   0.3   0.4   0.0   0.0   0.0   0.7   0.7   0.6   0.6  0.58  0.41  0.28  0.00  0.00   83.08   76.27    2.24    0.00    0.00
 1990 355   135     0     0     6.9   12.8   16564    4.9    7.9   0.3   0.5   0.3   0.3   0.3   0.3   0.3   0.4   0.0   0.0   0.1   0.5   0.6   0.6   0.6  0.58  0.40  0.27  0.00  0.00   83.87   76.85    2.24    0.00    0.00
 1990 356   136     0     0     6.9   12.7   16563    5.0    7.7   0.3   0.3   0.4   0.3   0.3   0.3   0.3   0.4   0.0   0.0   0.1   0.5   0.6   0.6   0.6  0.58  0.40  0.26  0.00  0.00   84.66   77.55    2.24    0.00    0.00
 1990 357   137     0     0     6.9   12.6   16563    4.4    8.2   0.3   0.3   0.3   0.3   0.3   0.3   0.3   0.4   0.0   0.0   0.2   0.6   0.7   0.6   0.6  0.59  0.40  0.26  0.00  0.00   85.41   77.68    2.24    0.00    0.00
 1990 358   138     0     0     6.9   12.8   16562    4.5    8.4   0.2   0.3   0.3   0.3   0.3   0.3   0.3   0.4   0.0   0.0   0.3   0.7   0.7   0.6   0.6  0.59  0.39  0.25  0.00  0.00   86.19   77.91    2.24    0.00    0.00
 1990 359   139     0     0     7.0   12.9   16561    4.3    8.7   0.3   0.3   0.3   0.3   0.2   0.2   0.3   0.3   0.0   0.0   0.4   0.7   0.8   0.6   0.6  0.59  0.40  0.24  0.00  0.00   86.94   78.07    2.24    0.00    0.00
 1990 360   140     0     0     7.0   13.1   16561    4.6    8.5   0.8   0.3   0.3   0.3   0.3   0.3   0.3   0.3   0.0   0.0   0.0   0.7   0.8   0.6   0.6  0.59  0.40  0.24  0.00  0.00   87.70   78.57    2.24    0.00    0.00
 1990 361   141     0     0     7.0   12.7   16560    4.6    8.2   0.3   0.5   0.3   0.3   0.3   0.3   0.3   0.3   0.0   0.0   0.2   0.5   0.7   0.6   0.6  0.59  0.40  0.23  0.00  0.00   88.48   79.01    2.25    0.00    0.00
 1990 362   142     0     0     7.0   12.6   16559    4.8    7.8   0.5   0.4   0.3   0.3   0.3   0.3   0.3   0.3   0.0   0.0   0.1   0.5   0.6   0.6   0.6  0.59  0.39  0.23  0.00  0.00   89.29   79.77    2.25    0.00    0.00
 1990 363   143     0     0     7.0   12.3   16558    4.7    7.6   0.4   0.4   0.3   0.3   0.3   0.3   0.3   0.3   0.0   0.0   0.1   0.5   0.6   0.6   0.6  0.59  0.39  0.22  0.00  0.00   90.08   80.40    2.25    0.00    0.00
 1990 364   144     0     0     7.0   12.2   16558    4.7    7.5   0.4   0.4   0.3   0.3   0.3   0.3   0.3   0.3   0.0   0.0   0.1   0.5   0.6   0.6   0.6  0.59  0.39  0.22  0.00  0.00   90.86   81.03    2.25    0.00    0.00
 1990 365   145     0     0     7.0   12.1   16557    4.6    7.5   0.4   0.4   0.3   0.3   0.3   0.3   0.3   0.3   0.0   0.0   0.1   0.5   0.6   0.5   0.5  0.59  0.39  0.22  0.00  0.00   91.66   81.66    2.25    0.00    0.00
 1991 001   146     0     0     7.0   12.1   16556    4.6    7.4   0.4   0.4   0.3   0.3   0.3   0.3   0.3   0.3   0.0   0.0   0.1   0.5   0.6   0.5   0.5  0.59  0.39  0.21  0.00  0.00   92.44   82.28    2.25    0.00    0.00
 1991 002   147     0     0     7.0   12.0   16556    4.6    7.4   0.4   0.4   0.3   0.3   0.3   0.3   0.3   0.3   0.0   0.0   0.1   0.5   0.6   0.5   0.5  0.59  0.39  0.21  0.00  0.00   93.21   82.88    2.25    0.00    0.00
 1991 003   148     0     0     7.0   12.0   16555    4.6    7.4   0.4   0.4   0.3   0.3   0.3   0.3   0.3   0.3   0.0   0.0   0.1   0.5   0.6   0.5   0.5  0.59  0.38  0.20  0.00  0.00   94.01   83.52    2.25    0.00    0.00
 1991 004   149     0     0     7.0   12.0   16554    4.7    7.3   0.4   0.4   0.3   0.3   0.3   0.3   0.3   0.3   0.0   0.0   0.1   0.4   0.6   0.5   0.5  0.59  0.38  0.20  0.00  0.00   94.82   84.18    2.25    0.00    0.00
 1991 005   150     0     0     7.0   11.9   16553    4.6    7.3   0.4   0.4   0.3   0.3   0.3   0.3   0.3   0.3   0.0   0.0   0.1   0.4   0.6   0.5   0.5  0.59  0.38  0.20  0.00  0.00   95.61   84.84    2.25    0.00    0.00
 1991 006   151     0     0     7.0   11.8   16553    4.6    7.2   0.4   0.4   0.3   0.3   0.3   0.3   0.3   0.3   0.0   0.0   0.1   0.4   0.6   0.5   0.5  0.59  0.38  0.19  0.00  0.00   96.36   85.47    2.25    0.00    0.00
 1991 007   152     0     0     7.0   11.7   16552    4.6    7.1   0.4   0.4   0.3   0.3   0.3   0.3   0.3   0.3   0.0   0.0   0.1   0.4   0.6   0.5   0.5  0.58  0.38  0.19  0.00  0.00   97.08   86.09    2.25    0.00    0.00
 1991 008   153     0     0     7.0   11.6   16551    4.6    7.0   0.2   0.4   0.4   0.3   0.3   0.3   0.3   0.3   0.0   0.0   0.1   0.4   0.6   0.5   0.5  0.58  0.37  0.19  0.00  0.00   97.79   86.71    2.25    0.00    0.00
 1991 009   154     0     0     7.0   11.7   16551    4.5    7.2   0.3   0.3   0.3   0.3   0.3   0.3   0.3   0.3   0.0   0.0   0.1   0.5   0.6   0.5   0.5  0.58  0.37  0.18  0.00  0.00   98.62   87.21    2.25    0.00    0.00
 1991 010   155     0     0     7.0   11.9   16550    4.7    7.1   0.4   0.5   0.3   0.3   0.3   0.3   0.3   0.3   0.0   0.0   0.1   0.5   0.6   0.5   0.5  0.58  0.37  0.18  0.00  0.00   99.44   87.94    2.25    0.00    0.00
 1991 011   156     0     0     7.0   11.8   16549    4.5    7.3   0.4   0.3   0.3   0.3   0.3   0.3   0.3   0.3   0.0   0.0   0.1   0.6   0.6   0.5   0.5  0.58  0.37  0.18  0.00  0.00  100.27   88.47    2.25    0.00    0.00
 1991 012   157     0     0     7.0   11.8   16548    4.8    7.1   0.5   0.5   0.3   0.3   0.3   0.3   0.3   0.3   0.0   0.0   0.1   0.5   0.6   0.5   0.5  0.58  0.36  0.17  0.00  0.00  101.08   89.23    2.25    0.00    0.00
 1991 013   158     0     0     7.0   11.7   16548    4.6    7.0   0.4   0.4   0.3   0.3   0.3   0.3   0.3   0.3   0.0   0.0   0.1   0.5   0.6   0.5   0.5  0.57  0.36  0.17  0.00  0.00  101.85   89.87    2.25    0.00    0.00
 1991 014   159     0     0     7.0   11.6   16547    4.6    7.0   0.4   0.4   0.3   0.3   0.3   0.3   0.3   0.3   0.0   0.0   0.1   0.5   0.6   0.5   0.5  0.57  0.36  0.17  0.00  0.00  102.57   90.47    2.25    0.00    0.00
 1991 015   160     0     0     7.0   11.5   16546    4.6    6.9   0.4   0.4   0.3   0.3   0.3   0.3   0.3   0.3   0.0   0.0   0.1   0.5   0.6   0.5   0.5  0.57  0.36  0.17  0.00  0.00  103.27   91.09    2.25    0.00    0.00
 1991 016   161     0     0     7.0   11.4   16546    4.6    6.8   0.4   0.4   0.3   0.3   0.3   0.3   0.3   0.3   0.0   0.0   0.1   0.4   0.6   0.5   0.5  0.57  0.35  0.16  0.00  0.00  103.93   91.68    2.25    0.00    0.00
 1991 017   162     0     0     7.0   11.3   16545    4.5    6.8   0.2   0.4   0.4   0.3   0.3   0.3   0.3   0.3   0.0   0.0   0.1   0.4   0.6   0.5   0.5  0.57  0.35  0.16  0.00  0.00  104.54   92.24    2.25    0.00    0.00
 1991 018   163     0     0     7.0   11.3   16545    4.4    6.9   0.3   0.3   0.3   0.3   0.3   0.3   0.3   0.3   0.0   0.0   0.1   0.5   0.6   0.5   0.5  0.57  0.35  0.16  0.00  0.00  105.25   92.65    2.25    0.00    0.00
 1991 019   164     0     0     7.0   11.5   16544    4.6    6.9   0.4   0.4   0.3   0.3   0.3   0.3   0.3   0.3   0.0   0.0   0.1   0.5   0.6   0.5   0.5  0.56  0.34  0.16  0.00  0.00  105.97   93.28    2.25    0.00    0.00
 1991 020   165     0     0     7.0   11.4   16543    4.6    6.8   0.4   0.4   0.3   0.3   0.3   0.3   0.3   0.3   0.0   0.0   0.1   0.5   0.6   0.5   0.5  0.56  0.34  0.15  0.00  0.00  106.68   93.88    2.25    0.00    0.00
 1991 021   166     0     0     7.0   12.1   16543    5.2    6.9   0.3   0.5   0.4   0.4   0.4   0.3   0.3   0.3   0.0   0.0   0.1   0.5   0.6   0.5   0.5  0.57  0.34  0.15  0.00  0.00  107.36   94.47    2.25    0.00    0.00
 1991 022   167     0     0     7.0   12.9   16542    5.4    7.5   0.2   0.5   0.5   0.4   0.4   0.3   0.3   0.3   0.0   0.0   0.2   0.6   0.8   0.5   0.5  0.58  0.34  0.15  0.00  0.00  108.13   94.68    2.25    0.00    0.00

*DSSAT Cropping System Model Ver. 4.0.2.000               Aug 11, 2016; 15:43:00

*RUN   2        : UYMZ                    
 MODEL          : MZCER040 - Maize           
 EXPERIMENT     : UYMZ0144 MZ    late to create DSS                             
 TREATMENT  1   : UYMZ                    

@YEAR DOY   DAS  NAPC  NI#M    NLCC   NIAD    NOAD   NITD   NHTD  NI1D  NI2D  NI3D  NI4D  NI5D  NI6D  NI7D  NI8D  NI9D  NI10  NH1D  NH2D  NH3D  NH4D  NH5D  NH6D  NH7D  NH8D  NH9D  NH10    NMNC    NITC    NDNC    NIMC    AMLC
 1991 220     0     0     0     0.0   99.2   16646   76.1   23.0  15.7  15.2  15.1   8.6   4.6   0.0   0.1   0.1   0.0   0.0   0.8   1.4   1.5   1.5   1.5  1.50  1.47  1.46  0.00  0.00    0.41    1.33    0.00    0.00    0.00
 1991 221     1     0     0     0.0   99.6   16645   77.3   22.3  16.1  15.4  15.2   8.7   4.6   0.0   0.1   0.1   0.0   0.0   0.5   1.2   1.4   1.4   1.4  1.51  1.43  1.41  0.00  0.00    0.84    2.48    0.00    0.00    0.00
 1991 222     2     0     0     0.0  100.0   16645   78.3   21.7  16.4  15.5  15.3   8.7   4.7   0.1   0.1   0.2   0.0   0.0   0.3   1.1   1.4   1.4   1.4  1.51  1.40  1.37  0.00  0.00    1.28    3.51    0.00    0.00    0.00
 1991 223     3     0     0     0.0  100.5   16644   79.3   21.2   5.8  16.0  18.8   8.8   4.7   0.1   0.2   0.2   0.0   0.0   0.2   1.1   1.4   1.3   1.3  1.51  1.37  1.33  0.00  0.00    1.71    4.45    0.00    0.00    0.00
 1991 224     4     0     0     0.0  100.9   16644   80.0   20.9   5.9  15.4  19.2   8.9   4.8   0.1   0.2   0.2   0.0   0.0   0.2   1.1   1.4   1.3   1.3  1.51  1.34  1.29  0.00  0.00    2.14    5.19    0.00    0.00    0.00
 1991 225     5     0     0     0.0  101.3   16643   80.7   20.6   6.0  15.3  19.4   9.1   4.8   0.1   0.3   0.3   0.0   0.0   0.1   1.1   1.4   1.2   1.3  1.52  1.31  1.25  0.00  0.00    2.58    5.93    0.00    0.00    0.00
 1991 226     6     0     0     0.0  101.8   16643   81.6   20.2   6.0  15.3  19.5   9.2   4.9   0.1   0.3   0.3   0.0   0.0   0.1   1.0   1.3   1.2   1.2  1.52  1.28  1.22  0.00  0.00    3.02    6.78    0.00    0.00    0.00
 1991 227     7     0     0     0.0  102.3   16643   82.5   19.8   6.1  15.5  19.5   9.3   4.9   0.1   0.3   0.4   0.0   0.0   0.1   1.0   1.3   1.2   1.2  1.52  1.26  1.18  0.00  0.00    3.50    7.66    0.00    0.00    0.00
 1991 228     8     0     0     0.0  102.8   16642   83.4   19.4   6.2  15.6  19.6   9.5   5.0   0.2   0.4   0.4   0.0   0.0   0.1   0.9   1.3   1.1   1.2  1.52  1.23  1.15  0.00  0.00    4.05    8.60    0.00    0.00    0.00
 1991 229     9     0     0     0.0  103.4   16641   84.4   19.0   6.4  15.8  19.6   9.6   5.0   0.2   0.4   0.4   0.0   0.0   0.1   0.8   1.3   1.1   1.1  1.53  1.20  1.11  0.00  0.00    4.66    9.60    0.00    0.00    0.00
 1991 230    10     0     0     0.0  104.1   16641   85.5   18.6   6.6  15.9  19.7   9.7   5.1   0.2   0.5   0.5   0.0   0.0   0.1   0.7   1.3   1.1   1.1  1.53  1.17  1.08  0.00  0.00    5.32   10.65    0.00    0.00    0.00
 1991 231    11     0     0     0.0  104.8   16640   86.5   18.3   6.9  16.1  19.8   9.9   5.2   0.2   0.5   0.5   0.0   0.0   0.1   0.7   1.3   1.0   1.0  1.53  1.15  1.04  0.00  0.00    6.01   11.71    0.00    0.00    0.00
 1991 232    12     0     0     0.0  105.3   16639   87.4   17.9   7.0  16.1  19.9  10.0   5.2   0.2   0.5   0.6   0.0   0.0   0.1   0.6   1.2   1.0   1.0  1.54  1.12  1.01  0.00  0.00    6.71   12.74    0.00    0.00    0.00
 1991 233    13     0     0     0.0  106.0   16639   88.3   17.6   7.2  16.2  20.0  10.1   5.3   0.2   0.6   0.6   0.0   0.0   0.1   0.6   1.2   0.9   1.0  1.54  1.10  0.98  0.00  0.00    7.39   13.72    0.00    0.00    0.00
 1991 234    14     0     0     0.0  106.6   16638   89.3   17.4   7.5  16.3  20.1  10.2   5.3   0.3   0.6   0.6   0.0   0.0   0.1   0.6   1.2   0.9   1.0  1.54  1.07  0.95  0.00  0.00    8.08   14.68    0.00    0.00    0.00
 1991 235    15     0     0     0.0  107.3   16637   90.2   17.1   7.7  16.4  20.2  10.3   5.4   0.3   0.6   0.7   0.0   0.0   0.1   0.5   1.2   0.9   0.9  1.54  1.05  0.92  0.00  0.00    8.74   15.62    0.00    0.00    0.00
 1991 236    16     0     0     0.0  107.9   16637   91.1   16.8   7.9  16.4  20.3  10.4   5.4   0.3   0.7   0.7   0.0   0.0   0.1   0.5   1.2   0.9   0.9  1.55  1.03  0.89  0.00  0.00    9.39   16.53    0.00    0.00    0.00
 1991 237    17     0     0     0.0  108.5   16636   91.9   16.6   8.1  16.5  20.4  10.5   5.5   0.3   0.7   0.7   0.0   0.0   0.1   0.5   1.2   0.8   0.9  1.55  1.00  0.87  0.00  0.00   10.02   17.38    0.00    0.00    0.00
 1991 238    18     0     0     0.0  109.1   16635   92.7   16.4   8.3  16.5  20.5  10.6   5.5   0.3   0.7   0.8   0.0   0.0   0.1   0.5   1.2   0.8   0.9  1.55  0.98  0.84  0.00  0.00   10.63   18.22    0.00    0.00    0.00
 1991 239    19     0     0     0.0  109.7   16635   93.5   16.2   8.5  16.6  20.6  10.7   5.6   0.4   0.8   0.8   0.0   0.0   0.1   0.4   1.2   0.8   0.8  1.55  0.96  0.82  0.00  0.00   11.20   18.99    0.00    0.00    0.00
 1991 240    20     0     0     0.0  110.2   16634   94.2   16.0   8.7  16.6  20.7  10.8   5.6   0.4   0.8   0.8   0.0   0.0   0.1   0.4   1.1   0.8   0.8  1.56  0.94  0.79  0.00  0.00   11.73   19.70    0.00    0.00    0.00
 1991 241    21     0     0     0.0  110.6   16634   94.8   15.8   8.8  16.6  20.7  10.8   5.6   0.4   0.8   0.8   0.0   0.0   0.1   0.4   1.1   0.8   0.8  1.56  0.93  0.77  0.00  0.00   12.24   20.38    0.00    0.00    0.00
 1991 242    22     0     0     0.0  110.9   16633   95.2   15.6   8.9  16.5  20.8  10.9   5.7   0.4   0.9   0.9   0.0   0.0   0.1   0.4   1.1   0.8   0.8  1.56  0.91  0.75  0.00  0.00   12.76   21.07    0.00    0.00    0.00
 1991 243    23     0     0     0.0  111.1   16633   95.6   15.5   9.1  16.4  20.8  11.0   5.7   0.4   0.9   0.9   0.0   0.0   0.1   0.4   1.1   0.8   0.8  1.56  0.89  0.73  0.00  0.00   13.27   21.74    0.00    0.00    0.00
 1991 244    24     0     0     0.0  111.2   16632   95.8   15.3   6.6  17.5  20.8  11.0   5.7   0.5   0.9   0.9   0.0   0.0   0.1   0.4   1.1   0.7   0.8  1.57  0.87  0.71  0.00  0.00   13.79   22.40    0.00    0.00    0.00
 1991 245    25     0     0     0.0  111.4   16632   96.2   15.2   6.6  17.2  20.9  11.1   5.8   0.5   0.9   0.9   0.0   0.0   0.1   0.4   1.1   0.7   0.8  1.57  0.86  0.69  0.00  0.00   14.33   23.06    0.00    0.00    0.00
 1991 246    26     0     0     0.0  111.8   16631   96.7   15.1   6.6  17.1  21.1  11.2   5.8   0.5   1.0   1.0   0.0   0.0   0.1   0.4   1.1   0.7   0.7  1.57  0.84  0.67  0.00  0.00   14.86   23.70    0.00    0.00    0.00
 1991 247    27     0     0     0.0  112.0   16631   97.0   15.0   6.7  16.9  21.2  11.2   5.8   0.5   1.0   1.0   0.0   0.0   0.1   0.5   1.1   0.7   0.7  1.57  0.83  0.65  0.00  0.00   15.39   24.33    0.00    0.00    0.00
 1991 248    28     0     0     0.0  111.8   16630   96.9   14.9   6.7  16.7  21.1  11.3   5.9   0.5   1.0   1.0   0.0   0.0   0.1   0.5   1.1   0.7   0.7  1.57  0.81  0.63  0.00  0.00   15.93   24.97    0.00    0.00    0.00
 1991 249    29     0     0     0.0  111.6   16630   96.8   14.8   6.7  16.5  20.9  11.4   5.9   0.5   1.0   1.0   0.0   0.0   0.1   0.5   1.0   0.7   0.7  1.58  0.80  0.62  0.00  0.00   16.51   25.65    0.00    0.00    0.00
 1991 250    30     0     0     0.0  111.6   16629   96.9   14.6   6.5  16.5  20.8  11.4   5.9   0.6   1.1   1.0   0.0   0.0   0.1   0.5   1.0   0.7   0.7  1.58  0.79  0.60  0.00  0.00   17.11   26.37    0.00    0.00    0.00
 1991 251    31     0     0     0.0  111.4   16628   96.8   14.6   6.1  16.5  20.6  11.5   6.0   0.6   1.1   1.1   0.0   0.0   0.2   0.5   1.0   0.7   0.7  1.58  0.77  0.58  0.00  0.00   17.72   27.02    0.00    0.00    0.00
 1991 252    32     0     0     0.0  111.4   16628   97.0   14.4   6.2  16.4  20.6  11.5   6.0   0.6   1.1   1.1   0.0   0.0   0.1   0.5   1.0   0.7   0.7  1.58  0.76  0.57  0.00  0.00   18.32   27.75    0.00    0.00    0.00
 1991 253    33     0     0     0.0  111.1   16627   96.7   14.3   6.2  16.2  20.3  11.6   6.0   0.6   1.1   1.1   0.0   0.0   0.1   0.5   1.0   0.7   0.7  1.58  0.75  0.55  0.00  0.00   18.87   28.39    0.00    0.00    0.00
 1991 254    34     0     0     0.0  110.7   16627   96.5   14.2   6.2  16.0  20.1  11.6   6.1   0.6   1.2   1.1   0.0   0.0   0.1   0.5   1.0   0.7   0.7  1.59  0.73  0.54  0.00  0.00   19.40   29.00    0.00    0.00    0.00
 1991 255    35     0     0     0.0  110.0   16626   95.9   14.1   6.1  15.8  19.8  11.7   6.1   0.6   1.2   1.1   0.0   0.0   0.1   0.5   1.0   0.6   0.7  1.59  0.72  0.53  0.00  0.00   19.91   29.62    0.00    0.00    0.00
 1991 256    36     0     0     0.0  109.2   16626   95.2   14.0   6.1  15.5  19.4  11.7   6.1   0.7   1.2   1.2   0.0   0.0   0.1   0.5   1.0   0.6   0.7  1.59  0.71  0.51  0.00  0.00   20.45   30.27    0.00    0.00    0.00
 1991 257    37     0     0     0.0  108.4   16625   94.5   13.9   6.1  15.2  19.0  11.7   6.2   0.7   1.2   1.2   0.0   0.0   0.1   0.4   1.0   0.6   0.7  1.59  0.70  0.50  0.00  0.00   21.04   30.97    0.00    0.00    0.00
 1991 258    38     0     0     0.0  107.2   16624   93.5   13.7   2.0  10.7  20.6  13.5   6.2   0.7   1.3   1.2   0.0   0.0   0.1   0.4   0.9   0.6   0.6  1.60  0.69  0.49  0.00  0.00   21.62   31.67    0.00    0.00    0.00
 1991 259    39     0     0     0.0  106.9   16624   92.9   14.0   1.9  10.3  19.9  13.9   6.2   0.7   1.3   1.2   0.0   0.0   0.2   0.5   1.0   0.6   0.6  1.60  0.68  0.48  0.00  0.00   22.25   32.03    0.00    0.00    0.00
 1991 260    40     0     0     0.0  107.0   16623   92.9   14.1   1.5   8.8  18.7  14.7   7.4   0.7   1.3   1.2   0.0   0.0   0.1   0.6   1.1   0.6   0.6  1.60  0.67  0.46  0.00  0.00   22.88   32.50    0.00    0.00    0.00
 1991 261    41     0     0     1.3  104.7   16623   90.4   14.4   0.5   4.4  12.8  12.4   9.6   3.5   1.7   1.6   0.0   0.0   0.2   0.7   1.2   0.6   0.6  1.60  0.66  0.45  0.00  0.00   23.46   32.79    0.00    0.00    0.00
 1991 262    42     0     0     2.0  103.5   16622   88.8   14.7   0.6   4.3  12.2  11.8   9.4   3.7   1.8   1.6   0.0   0.0   0.1   0.8   1.2   0.7   0.7  1.62  0.67  0.45  0.00  0.00   24.00   32.97    0.00    0.00    0.00
 1991 263    43     0     0     2.4  102.1   16622   87.2   14.9   0.8   4.1  11.6  11.4   9.3   3.7   1.9   1.6   0.0   0.0   0.1   0.7   1.3   0.7   0.7  1.63  0.67  0.45  0.00  0.00   24.54   33.29    0.06    0.00    0.00
 1991 264    44     0     0     2.6  100.7   16621   85.8   14.9   0.9   4.0  11.1  11.1   9.3   3.7   1.9   1.6   0.0   0.0   0.1   0.7   1.2   0.7   0.7  1.65  0.68  0.45  0.00  0.00   25.12   33.77    0.06    0.00    0.00
 1991 265    45     0     0     2.7   99.4   16620   84.5   14.9   1.1   3.9  10.6  10.8   9.2   3.7   2.0   1.6   0.0   0.0   0.1   0.6   1.2   0.7   0.7  1.66  0.68  0.45  0.00  0.00   25.72   34.26    0.07    0.00    0.00
 1991 266    46     0     0     2.8   97.4   16620   82.5   14.8   1.2   3.7   9.9  10.6   9.2   3.7   2.0   1.6   0.0   0.0   0.1   0.6   1.1   0.7   0.7  1.68  0.69  0.45  0.00  0.00   26.31   34.80    0.09    0.00    0.00
 1991 267    47     0     0     2.8   95.8   16619   81.0   14.8   1.3   3.6   9.3  10.3   9.2   3.7   2.0   1.6   0.0   0.0   0.1   0.6   1.1   0.7   0.8  1.69  0.69  0.45  0.00  0.00   26.89   35.31    0.11    0.00    0.00
 1991 268    48     0     0     2.8   95.1   16619   80.2   14.8   1.4   3.6   9.0  10.2   9.1   3.7   2.0   1.6   0.0   0.0   0.1   0.5   1.1   0.7   0.8  1.71  0.70  0.45  0.00  0.00   27.46   35.81    0.12    0.00    0.00
 1991 269    49     0     0     2.8   93.8   16618   79.0   14.9   1.5   3.5   8.6  10.0   9.0   3.7   2.0   1.6   0.0   0.0   0.1   0.5   1.0   0.7   0.8  1.72  0.70  0.45  0.00  0.00   28.03   36.30    0.13    0.00    0.00
 1991 270    50     0     0     2.8   91.8   16617   77.0   14.8   1.5   3.4   8.0   9.8   8.8   3.7   2.0   1.6   0.0   0.0   0.1   0.5   1.0   0.7   0.8  1.73  0.70  0.45  0.00  0.00   28.59   36.77    0.13    0.00    0.00
 1991 271    51     0     0     2.8   89.6   16617   74.9   14.8   1.5   3.2   7.4   9.5   8.6   3.8   2.0   1.6   0.0   0.0   0.1   0.5   1.0   0.6   0.8  1.75  0.71  0.45  0.00  0.00   29.16   37.32    0.14    0.00    0.00
 1991 272    52     0     0     2.8   87.0   16616   72.4   14.7   1.5   3.0   6.7   9.1   8.4   3.8   2.0   1.6   0.0   0.0   0.1   0.5   0.9   0.6   0.8  1.76  0.71  0.45  0.00  0.00   29.73   37.86    0.14    0.00    0.00
 1991 273    53     0     0     2.8   85.6   16616   70.9   14.6   1.5   2.9   6.3   8.9   8.2   3.8   2.0   1.6   0.0   0.0   0.1   0.5   0.9   0.6   0.7  1.78  0.72  0.44  0.00  0.00   30.28   38.38    0.15    0.00    0.00
 1991 274    54     0     0     2.8   83.6   16615   69.0   14.6   1.5   2.7   5.8   8.6   8.0   3.8   2.0   1.6   0.0   0.0   0.1   0.5   0.9   0.6   0.7  1.79  0.72  0.44  0.00  0.00   30.82   38.88    0.16    0.00    0.00
 1991 275    55     0     0     2.8   81.7   16615   67.1   14.5   1.4   2.5   5.3   8.3   7.8   3.8   2.0   1.6   0.0   0.0   0.1   0.4   0.9   0.6   0.7  1.81  0.72  0.44  0.00  0.00   31.34   39.36    0.16    0.00    0.00
 1991 276    56     0     0     2.8   79.5   16614   65.0   14.5   0.6   2.3   5.1   8.0   7.5   3.8   2.0   1.6   0.0   0.0   0.1   0.4   0.8   0.6   0.7  1.82  0.73  0.44  0.00  0.00   31.80   39.78    0.17    0.00    0.00
 1991 277    57     0     0     2.8   77.5   16614   62.9   14.6   0.6   2.1   4.6   7.7   7.3   3.8   2.1   1.6   0.0   0.0   0.1   0.5   0.8   0.6   0.7  1.83  0.73  0.44  0.00  0.00   32.34   40.14    0.17    0.00    0.00
 1991 278    58     0     0     2.8   75.9   16613   61.3   14.6   0.7   2.0   4.2   7.4   7.0   3.8   2.1   1.6   0.0   0.0   0.1   0.5   0.8   0.6   0.7  1.84  0.73  0.44  0.00  0.00   32.89   40.60    0.18    0.00    0.00
 1991 279    59     0     0     2.8   75.4   16613   60.8   14.7   0.4   1.6   4.0   7.6   7.0   3.8   2.1   1.6   0.0   0.0   0.1   0.5   0.8   0.6   0.7  1.86  0.74  0.44  0.00  0.00   33.41   41.04    0.18    0.00    0.00
 1991 280    60     0     0     2.8   74.1   16612   59.2   14.9   0.2   1.1   3.3   6.4   7.2   4.2   2.2   1.7   0.0   0.0   0.2   0.6   0.9   0.6   0.6  1.87  0.74  0.44  0.00  0.00   33.91   41.21    0.19    0.00    0.00
 1991 281    61     0     0     3.4   72.9   16612   57.6   15.3   0.2   1.1   3.1   6.0   6.8   4.2   2.4   1.7   0.0   0.0   0.2   0.6   0.9   0.6   0.7  1.88  0.75  0.44  0.00  0.00   34.37   41.31    0.23    0.00    0.00
 1991 282    62     0     0     3.7   70.8   16611   55.4   15.4   0.4   1.0   2.7   5.5   6.4   4.2   2.4   1.7   0.0   0.0   0.2   0.7   0.9   0.6   0.7  1.90  0.75  0.44  0.00  0.00   34.83   41.51    0.26    0.00    0.00
 1991 283    63     0     0     3.8   69.4   16611   54.0   15.4   0.5   0.9   2.5   5.2   6.1   4.2   2.4   1.8   0.0   0.0   0.1   0.6   0.9   0.7   0.7  1.91  0.75  0.43  0.00  0.00   35.29   41.86    0.27    0.00    0.00
 1991 284    64     0     0     3.8   66.2   16610   51.0   15.1   0.5   0.8   1.9   4.8   5.6   4.2   2.5   1.8   0.0   0.0   0.1   0.6   0.8   0.6   0.7  1.92  0.76  0.43  0.00  0.00   35.79   42.32    0.28    0.00    0.00
 1991 285    65     0     0     3.8   62.9   16610   47.9   15.0   0.4   0.6   1.4   4.2   5.0   4.2   2.5   1.8   0.0   0.0   0.1   0.5   0.7   0.6   0.6  1.94  0.76  0.43  0.00  0.00   36.35   42.81    0.29    0.00    0.00
 1991 286    66     0     0     3.8   58.8   16609   44.0   14.8   0.4   0.5   0.8   3.5   4.3   4.2   2.5   1.8   0.0   0.0   0.1   0.5   0.7   0.6   0.6  1.95  0.76  0.43  0.00  0.00   36.99   43.35    0.30    0.00    0.00
 1991 287    67     0     0     3.8   53.8   16609   39.4   14.4   0.4   0.4   0.4   2.7   3.4   4.0   2.5   1.8   0.0   0.0   0.1   0.5   0.6   0.6   0.6  1.90  0.77  0.43  0.00  0.00   37.70   43.93    0.31    0.00    0.00
 1991 288    68     0     0     3.8   50.7   16608   36.5   14.1   0.1   0.3   0.4   2.1   3.1   3.8   2.5   1.8   0.0   0.0   0.2   0.5   0.6   0.6   0.6  1.83  0.77  0.43  0.00  0.00   38.48   44.48    0.31    0.00    0.00
 1991 289    69     0     0     7.3   45.1   16607   31.0   14.1   0.4   0.2   0.2   1.0   1.8   3.1   2.9   2.3   0.0   0.0   0.1   0.6   0.7   0.6   0.6  1.76  0.78  0.43  0.00  0.00   39.23   44.80    0.32    0.00    0.00
 1991 290    70     0     0     8.5   42.8   16606   28.5   14.3   0.3   0.2   0.2   0.9   1.4   2.7   2.8   2.3   0.0   0.0   0.2   0.7   0.8   0.6   0.6  1.70  0.78  0.43  0.00  0.00   39.89   44.88    0.41    0.00    0.00
 1991 291    71     0     0     9.2   39.9   16606   25.9   14.0   0.3   0.2   0.2   0.7   1.1   2.4   2.8   2.3   0.0   0.0   0.3   0.7   0.8   0.6   0.6  1.59  0.79  0.43  0.00  0.00   40.58   45.04    0.45    0.00    0.00
 1991 292    72     0     0     9.5   36.5   16605   23.6   12.9   0.5   0.4   0.2   0.5   0.9   1.9   2.7   2.3   0.0   0.0   0.1   0.5   0.8   0.6   0.6  1.42  0.79  0.43  0.00  0.00   41.21   45.52    0.47    0.00    0.00
 1991 293    73     0     0     9.6   33.6   16605   21.6   12.0   0.4   0.4   0.3   0.4   0.7   1.6   2.7   2.3   0.0   0.0   0.1   0.5   0.6   0.6   0.6  1.27  0.80  0.43  0.00  0.00   41.81   46.00    0.48    0.00    0.00
 1991 294    74     0     0     9.7   31.5   16604   20.1   11.4   0.4   0.4   0.3   0.4   0.6   1.3   2.7   2.3   0.0   0.0   0.1   0.5   0.6   0.6   0.5  1.15  0.80  0.43  0.00  0.00   42.42   46.46    0.49    0.00    0.00
 1991 295    75     0     0     9.7   29.9   16603   19.0   10.9   0.4   0.4   0.3   0.3   0.5   1.1   2.7   2.3   0.0   0.0   0.1   0.5   0.6   0.6   0.5  1.04  0.80  0.43  0.00  0.00   43.08   46.99    0.49    0.00    0.00
 1991 296    76     0     0     9.7   28.7   16603   18.2   10.5   0.4   0.4   0.3   0.3   0.4   0.9   2.7   2.3   0.0   0.0   0.1   0.5   0.6   0.5   0.5  0.95  0.81  0.43  0.00  0.00   43.82   47.58    0.49    0.00    0.00
 1991 297    77     0     0     9.7   27.7   16602   17.5   10.2   0.3   0.4   0.3   0.3   0.3   0.8   2.7   2.3   0.0   0.0   0.2   0.5   0.6   0.5   0.5  0.88  0.81  0.43  0.00  0.00   44.55   48.09    0.49    0.00    0.00
 1991 298    78     0     0     9.7   26.9   16601   17.0    9.9   0.5   0.4   0.3   0.3   0.3   0.6   2.7   2.3   0.0   0.0   0.1   0.5   0.6   0.5   0.5  0.83  0.81  0.43  0.00  0.00   45.24   48.68    0.50    0.00    0.00
 1991 299    79     0     0     9.7   26.2   16601   16.5    9.7   0.4   0.4   0.3   0.3   0.3   0.5   2.7   2.3   0.0   0.0   0.1   0.5   0.6   0.5   0.5  0.78  0.82  0.43  0.00  0.00   45.91   49.18    0.50    0.00    0.00
 1991 300    80     0     0     9.7   25.7   16600   16.2    9.6   0.4   0.4   0.3   0.3   0.3   0.4   2.8   2.3   0.0   0.0   0.1   0.5   0.6   0.5   0.5  0.74  0.82  0.42  0.00  0.00   46.55   49.66    0.50    0.00    0.00
 1991 301    81     0     0     9.7   25.3   16600   15.9    9.4   0.4   0.4   0.3   0.3   0.3   0.4   2.8   2.3   0.0   0.0   0.1   0.5   0.6   0.5   0.5  0.71  0.82  0.42  0.00  0.00   47.15   50.10    0.50    0.00    0.00
 1991 302    82     0     0     9.7   25.0   16599   15.7    9.3   0.4   0.4   0.3   0.3   0.3   0.3   2.8   2.3   0.0   0.0   0.1   0.5   0.6   0.5   0.5  0.68  0.82  0.42  0.00  0.00   47.76   50.55    0.50    0.00    0.00
 1991 303    83     0     0     9.7   24.8   16598   15.5    9.3   0.2   0.4   0.3   0.3   0.3   0.3   2.8   2.3   0.0   0.0   0.1   0.5   0.6   0.5   0.5  0.66  0.83  0.42  0.00  0.00   48.37   51.00    0.51    0.00    0.00
 1991 304    84     0     0     9.7   24.7   16598   15.4    9.3   0.3   0.3   0.3   0.3   0.3   0.3   2.8   2.3   0.0   0.0   0.2   0.6   0.6   0.5   0.5  0.65  0.83  0.42  0.00  0.00   48.96   51.29    0.51    0.00    0.00
 1991 305    85     0     0     9.7   24.7   16597   15.4    9.4   0.3   0.3   0.3   0.3   0.3   0.3   2.8   2.3   0.0   0.0   0.3   0.6   0.6   0.5   0.5  0.63  0.83  0.42  0.00  0.00   49.54   51.58    0.51    0.00    0.00
 1991 306    86     0     0     9.7   24.8   16597   15.5    9.2   0.3   0.4   0.3   0.3   0.3   0.3   2.8   2.3   0.0   0.0   0.3   0.5   0.6   0.5   0.5  0.62  0.83  0.42  0.00  0.00   50.10   52.00    0.51    0.00    0.00
 1991 307    87     0     0     9.7   24.7   16596   15.7    9.0   0.5   0.4   0.3   0.3   0.3   0.3   2.8   2.3   0.0   0.0   0.2   0.5   0.6   0.5   0.5  0.61  0.82  0.42  0.00  0.00   50.68   52.57    0.51    0.00    0.00
 1991 308    88     0     0     9.7   24.7   16596   15.7    8.9   0.4   0.4   0.3   0.3   0.3   0.3   2.8   2.4   0.0   0.0   0.1   0.5   0.6   0.5   0.5  0.60  0.81  0.42  0.00  0.00   51.28   53.07    0.51    0.00    0.00
 1991 309    89     0     0     9.7   24.7   16595   15.8    8.9   0.4   0.4   0.3   0.3   0.3   0.3   2.9   2.4   0.0   0.0   0.1   0.5   0.6   0.5   0.5  0.60  0.79  0.42  0.00  0.00   51.92   53.59    0.51    0.00    0.00
 1991 310    90     0     0     9.7   24.7   16594   15.9    8.8   0.3   0.4   0.3   0.3   0.3   0.3   2.9   2.4   0.0   0.0   0.1   0.5   0.6   0.5   0.5  0.59  0.78  0.42  0.00  0.00   52.57   54.13    0.51    0.00    0.00
 1991 311    91     0     0     9.7   24.7   16594   15.8    8.9   0.3   0.3   0.3   0.3   0.3   0.3   2.9   2.4   0.0   0.0   0.2   0.6   0.6   0.5   0.5  0.59  0.77  0.42  0.00  0.00   53.23   54.50    0.51    0.00    0.00
 1991 312    92     0     0     9.7   24.7   16593   16.0    8.7   0.5   0.4   0.3   0.3   0.3   0.3   2.9   2.4   0.0   0.0   0.1   0.5   0.6   0.5   0.5  0.59  0.75  0.41  0.00  0.00   53.89   55.15    0.52    0.00    0.00
 1991 313    93     0     0     9.7   23.6   16593   15.1    8.6   0.4   0.4   0.3   0.3   0.3   0.3   2.6   2.4   0.0   0.0   0.1   0.5   0.6   0.5   0.5  0.58  0.71  0.41  0.00  0.00   54.55   55.68    0.52    0.00    0.00
 1991 314    94     0     0     9.7   22.8   16592   14.3    8.4   0.4   0.4   0.3   0.3   0.3   0.3   2.2   2.4   0.0   0.0   0.1   0.5   0.6   0.5   0.5  0.58  0.67  0.41  0.00  0.00   55.18   56.21    0.52    0.00    0.00
 1991 315    95     0     0     9.7   22.0   16591   13.7    8.3   0.4   0.4   0.3   0.3   0.3   0.3   2.0   2.4   0.0   0.0   0.1   0.5   0.6   0.5   0.5  0.58  0.64  0.41  0.00  0.00   55.80   56.73    0.52    0.00    0.00
 1991 316    96     0     0     9.7   21.4   16591   13.1    8.2   0.4   0.4   0.3   0.3   0.3   0.3   1.7   2.4   0.0   0.0   0.1   0.5   0.6   0.5   0.5  0.57  0.61  0.41  0.00  0.00   56.39   57.22    0.52    0.00    0.00
 1991 317    97     0     0     9.7   20.8   16590   12.6    8.1   0.4   0.4   0.3   0.3   0.3   0.3   1.5   2.4   0.0   0.0   0.1   0.5   0.6   0.5   0.5  0.57  0.59  0.41  0.00  0.00   56.95   57.70    0.52    0.00    0.00
 1991 318    98     0     0     9.7   20.2   16590   12.2    8.1   0.4   0.4   0.3   0.3   0.3   0.3   1.4   2.4   0.0   0.0   0.1   0.5   0.6   0.5   0.5  0.57  0.57  0.41  0.00  0.00   57.48   58.17    0.52    0.00    0.00
 1991 319    99     0     0     9.7   19.8   16589   11.8    8.0   0.4   0.4   0.3   0.3   0.3   0.3   1.2   2.4   0.0   0.0   0.1   0.5   0.6   0.5   0.5  0.56  0.56  0.41  0.00  0.00   57.99   58.61    0.52    0.00    0.00
 1991 320   100     0     0     9.7   19.4   16589   11.4    7.9   0.4   0.3   0.3   0.3   0.3   0.3   1.1   2.4   0.0   0.0   0.1   0.5   0.6   0.5   0.5  0.56  0.54  0.41  0.00  0.00   58.47   59.03    0.52    0.00    0.00
 1991 321   101     0     0     9.7   19.0   16588   11.2    7.9   0.4   0.3   0.3   0.3   0.3   0.3   0.9   2.4   0.0   0.0   0.1   0.5   0.6   0.5   0.5  0.56  0.53  0.41  0.00  0.00   58.96   59.46    0.52    0.00    0.00
 1991 322   102     0     0     9.7   18.7   16588   10.9    7.8   0.4   0.4   0.3   0.3   0.3   0.3   0.8   2.4   0.0   0.0   0.1   0.5   0.5   0.5   0.5  0.56  0.52  0.40  0.00  0.00   59.44   59.92    0.52    0.00    0.00
 1991 323   103     0     0     9.7   18.4   16588   10.8    7.7   0.2   0.4   0.4   0.3   0.3   0.3   0.7   2.4   0.0   0.0   0.1   0.4   0.5   0.5   0.5  0.56  0.51  0.39  0.00  0.00   59.92   60.40    0.52    0.00    0.00
 1991 324   104     0     0     9.7   18.2   16587   10.4    7.8   0.2   0.3   0.3   0.3   0.3   0.3   0.7   2.5   0.0   0.0   0.2   0.5   0.6   0.5   0.5  0.56  0.50  0.38  0.00  0.00   60.52   60.73    0.52    0.00    0.00
 1991 325   105     0     0     9.7   18.2   16586   10.5    7.7   0.4   0.4   0.3   0.3   0.3   0.3   0.6   2.5   0.0   0.0   0.1   0.5   0.6   0.5   0.5  0.55  0.50  0.37  0.00  0.00   61.12   61.32    0.52    0.00    0.00
 1991 326   106     0     0     9.7   18.0   16586   10.4    7.6   0.4   0.4   0.3   0.3   0.3   0.3   0.5   2.5   0.0   0.0   0.1   0.5   0.6   0.5   0.5  0.55  0.49  0.37  0.00  0.00   61.75   61.87    0.52    0.00    0.00
 1991 327   107     0     0     9.7   17.9   16585   10.4    7.6   0.4   0.4   0.3   0.3   0.3   0.3   0.5   2.5   0.0   0.0   0.1   0.5   0.6   0.5   0.4  0.55  0.48  0.36  0.00  0.00   62.40   62.47    0.52    0.00    0.00
 1991 328   108     0     0     9.7   17.8   16585   10.3    7.4   0.4   0.4   0.3   0.3   0.3   0.3   0.4   2.5   0.0   0.0   0.1   0.5   0.6   0.5   0.4  0.55  0.47  0.35  0.00  0.00   63.05   63.11    0.52    0.00    0.00
 1991 329   109     0     0     9.7   17.6   16584   10.2    7.4   0.1   0.2   0.3   0.3   0.4   0.3   0.4   2.5   0.0   0.0   0.1   0.5   0.6   0.5   0.4  0.55  0.47  0.34  0.00  0.00   63.69   63.72    0.52    0.00    0.00
 1991 330   110     0     0     9.7   17.6   16583    9.8    7.9   0.1   0.2   0.2   0.3   0.3   0.3   0.4   2.5   0.0   0.0   0.2   0.6   0.7   0.5   0.5  0.55  0.46  0.33  0.00  0.00   64.41   63.88    0.52    0.00    0.00
 1991 331   111     0     0     9.7   17.8   16583    9.5    8.3   0.1   0.2   0.2   0.3   0.3   0.3   0.4   2.5   0.0   0.0   0.3   0.7   0.7   0.5   0.5  0.57  0.46  0.33  0.00  0.00   65.12   64.03    0.52    0.00    0.00
 1991 332   112     0     0    10.2   17.3   16582    8.8    8.6   0.2   0.2   0.2   0.3   0.2   0.2   0.3   2.3   0.0   0.0   0.4   0.7   0.8   0.6   0.5  0.57  0.46  0.32  0.00  0.00   65.78   64.18    0.52    0.00    0.00
 1991 333   113     0     0    10.2   17.1   16582    8.7    8.4   0.5   0.3   0.3   0.3   0.3   0.2   0.3   2.1   0.0   0.0   0.1   0.7   0.7   0.6   0.5  0.58  0.45  0.32  0.00  0.00   66.42   64.55    0.52    0.00    0.00
 1991 334   114     0     0    10.4   16.7   16581    8.1    8.6   0.4   0.3   0.3   0.3   0.3   0.2   0.3   1.9   0.0   0.0   0.2   0.7   0.8   0.6   0.6  0.58  0.45  0.31  0.00  0.00   67.08   64.71    0.53    0.00    0.00
 1991 335   115     0     0    10.4   16.5   16580    8.0    8.5   0.5   0.3   0.3   0.3   0.3   0.3   0.3   1.8   0.0   0.0   0.1   0.7   0.7   0.6   0.6  0.58  0.44  0.30  0.00  0.00   67.80   65.08    0.53    0.00    0.00
 1991 336   116     0     0    10.4   16.1   16580    8.0    8.1   0.4   0.5   0.3   0.3   0.3   0.3   0.3   1.7   0.0   0.0   0.1   0.5   0.7   0.6   0.6  0.58  0.44  0.30  0.00  0.00   68.56   65.69    0.53    0.00    0.00
 1991 337   117     0     0    10.4   15.7   16579    7.9    7.9   0.4   0.4   0.3   0.3   0.3   0.3   0.3   1.6   0.0   0.0   0.1   0.5   0.6   0.6   0.5  0.58  0.43  0.29  0.00  0.00   69.37   66.39    0.53    0.00    0.00
 1991 338   118     0     0    10.4   15.4   16578    7.6    7.7   0.4   0.4   0.3   0.3   0.3   0.3   0.3   1.5   0.0   0.0   0.1   0.5   0.6   0.5   0.5  0.58  0.43  0.29  0.00  0.00   70.17   67.04    0.53    0.00    0.00
 1991 339   119     0     0    10.4   15.1   16577    7.4    7.7   0.3   0.4   0.4   0.3   0.3   0.3   0.3   1.4   0.0   0.0   0.1   0.5   0.6   0.5   0.5  0.58  0.43  0.28  0.00  0.00   70.99   67.72    0.53    0.00    0.00
 1991 340   120     0     0    10.4   14.9   16577    6.9    8.0   0.3   0.3   0.3   0.3   0.3   0.3   0.3   1.4   0.0   0.0   0.2   0.6   0.7   0.5   0.5  0.58  0.42  0.28  0.00  0.00   71.81   68.03    0.53    0.00    0.00
 1991 341   121     0     0    10.4   14.9   16576    6.9    8.0   0.7   0.3   0.3   0.3   0.3   0.3   0.3   1.3   0.0   0.0   0.0   0.7   0.7   0.5   0.5  0.58  0.42  0.27  0.00  0.00   72.66   68.59    0.53    0.00    0.00
 1991 342   122     0     0    10.4   14.6   16575    6.9    7.7   0.3   0.5   0.3   0.3   0.3   0.3   0.3   1.2   0.0   0.0   0.2   0.5   0.6   0.5   0.5  0.58  0.42  0.26  0.00  0.00   73.49   69.28    0.53    0.00    0.00
 1991 343   123     0     0    10.4   14.4   16574    6.8    7.6   0.4   0.4   0.4   0.3   0.3   0.3   0.3   1.1   0.0   0.0   0.1   0.5   0.6   0.5   0.5  0.58  0.41  0.26  0.00  0.00   74.34   70.04    0.53    0.00    0.00
 1991 344   124     0     0    10.4   14.2   16574    6.2    8.0   0.2   0.3   0.3   0.3   0.3   0.3   0.3   1.1   0.0   0.0   0.2   0.6   0.7   0.6   0.5  0.58  0.41  0.25  0.00  0.00   75.13   70.26    0.53    0.00    0.00
 1991 345   125     0     0    10.4   14.3   16573    6.0    8.3   0.3   0.3   0.3   0.3   0.3   0.3   0.3   1.0   0.0   0.0   0.3   0.7   0.8   0.6   0.6  0.58  0.40  0.25  0.00  0.00   75.93   70.47    0.53    0.00    0.00
 1991 346   126     0     0    10.4   14.3   16572    6.1    8.2   0.7   0.3   0.3   0.3   0.3   0.3   0.3   1.0   0.0   0.0   0.0   0.7   0.8   0.6   0.6  0.58  0.40  0.24  0.00  0.00   76.71   70.90    0.53    0.00    0.00
 1991 347   127     0     0    10.4   14.0   16571    5.9    8.1   0.2   0.5   0.3   0.3   0.3   0.3   0.3   0.9   0.0   0.0   0.1   0.5   0.7   0.6   0.6  0.58  0.40  0.24  0.00  0.00   77.47   71.33    0.53    0.00    0.00
 1991 348   128     0     0    10.4   13.9   16571    5.6    8.3   0.1   0.3   0.3   0.3   0.3   0.3   0.3   0.8   0.0   0.0   0.3   0.6   0.8   0.6   0.6  0.58  0.39  0.24  0.00  0.00   78.23   71.52    0.53    0.00    0.00
 1991 349   129     0     0    10.4   13.9   16570    5.4    8.6   0.2   0.3   0.3   0.3   0.3   0.3   0.3   0.8   0.0   0.0   0.4   0.7   0.8   0.6   0.6  0.59  0.39  0.23  0.00  0.00   78.95   71.68    0.54    0.00    0.00
 1991 350   130     0     0    10.4   14.0   16569    5.3    8.7   0.2   0.3   0.3   0.3   0.3   0.3   0.3   0.8   0.0   0.0   0.4   0.8   0.8   0.7   0.6  0.59  0.39  0.23  0.00  0.00   79.67   71.86    0.55    0.00    0.00
 1991 351   131     0     0    10.4   14.1   16569    5.2    8.9   0.3   0.3   0.3   0.3   0.3   0.3   0.3   0.7   0.0   0.0   0.5   0.8   0.8   0.7   0.6  0.60  0.39  0.22  0.00  0.00   80.38   72.05    0.56    0.00    0.00
 1991 352   132     0     0    10.4   14.2   16568    5.4    8.7   0.8   0.3   0.3   0.2   0.2   0.2   0.3   0.7   0.0   0.0   0.0   0.8   0.9   0.7   0.6  0.60  0.39  0.22  0.00  0.00   81.11   72.51    0.57    0.00    0.00
 1991 353   133     0     0    10.4   13.8   16568    5.1    8.6   0.0   0.3   0.3   0.3   0.3   0.3   0.3   0.7   0.0   0.0   0.1   0.8   0.8   0.7   0.6  0.60  0.38  0.21  0.00  0.00   81.88   72.74    0.58    0.00    0.00
 1991 354   134     0     0    10.4   13.7   16567    4.8    8.9   0.0   0.3   0.3   0.3   0.3   0.2   0.3   0.6   0.0   0.0   0.3   0.8   0.8   0.7   0.7  0.61  0.39  0.22  0.00  0.00   82.68   72.89    0.59    0.00    0.00
 1991 355   135     0     0    10.6   13.7   16566    4.9    8.9   0.5   0.3   0.3   0.3   0.3   0.2   0.2   0.5   0.0   0.0   0.0   0.8   0.9   0.7   0.7  0.61  0.40  0.22  0.00  0.00   83.53   73.28    0.60    0.00    0.00
 1991 356   136     0     0    10.6   13.6   16565    4.7    8.9   0.3   0.3   0.3   0.3   0.3   0.2   0.3   0.5   0.0   0.0   0.2   0.8   0.8   0.7   0.7  0.62  0.41  0.22  0.00  0.00   84.43   73.48    0.60    0.00    0.00
 1991 357   137     0     0    10.7   13.5   16564    5.1    8.4   0.4   0.5   0.3   0.3   0.3   0.3   0.3   0.5   0.0   0.0   0.0   0.5   0.8   0.7   0.7  0.62  0.40  0.21  0.00  0.00   85.33   74.16    0.61    0.00    0.00
 1991 358   138     0     0    10.9   13.3   16564    4.5    8.8   0.3   0.3   0.3   0.3   0.2   0.2   0.2   0.4   0.0   0.0   0.2   0.6   0.8   0.7   0.7  0.63  0.41  0.22  0.00  0.00   86.21   74.28    0.62    0.00    0.00
 1991 359   139     0     0    10.9   13.3   16563    4.6    8.8   0.6   0.3   0.3   0.3   0.3   0.2   0.2   0.4   0.0   0.0   0.0   0.7   0.8   0.7   0.7  0.63  0.42  0.22  0.00  0.00   87.11   74.66    0.62    0.00    0.00
 1991 360   140     0     0    10.9   13.1   16562    4.6    8.5   0.3   0.5   0.3   0.3   0.3   0.2   0.3   0.4   0.0   0.0   0.2   0.5   0.8   0.7   0.7  0.63  0.43  0.22  0.00  0.00   87.98   75.09    0.63    0.00    0.00
 1991 361   141     0     0    10.9   13.0   16561    4.7    8.3   0.3   0.4   0.3   0.3   0.3   0.2   0.3   0.3   0.0   0.0   0.3   0.5   0.7   0.6   0.6  0.63  0.44  0.22  0.00  0.00   88.81   75.61    0.63    0.00    0.00
 1991 362   142     0     0    10.9   12.9   16561    4.9    8.0   0.7   0.4   0.3   0.3   0.3   0.3   0.3   0.3   0.0   0.0   0.0   0.5   0.6   0.6   0.6  0.62  0.43  0.22  0.00  0.00   89.63   76.39    0.63    0.00    0.00
 1991 363   143     0     0    10.9   12.6   16560    4.7    7.9   0.3   0.4   0.3   0.3   0.3   0.3   0.3   0.3   0.0   0.0   0.1   0.5   0.6   0.6   0.6  0.62  0.43  0.22  0.00  0.00   90.43   76.97    0.63    0.00    0.00
 1991 364   144     0     0    10.9   12.5   16559    4.7    7.8   0.4   0.4   0.3   0.3   0.3   0.3   0.3   0.3   0.0   0.0   0.1   0.5   0.6   0.6   0.6  0.61  0.43  0.21  0.00  0.00   91.23   77.60    0.63    0.00    0.00
 1991 365   145     0     0    10.9   12.4   16559    4.7    7.7   0.4   0.4   0.3   0.3   0.3   0.3   0.3   0.3   0.0   0.0   0.1   0.5   0.6   0.6   0.6  0.61  0.43  0.21  0.00  0.00   92.05   78.23    0.63    0.00    0.00
 1992 001   146     0     0    10.9   12.4   16558    4.7    7.7   0.4   0.4   0.3   0.3   0.3   0.3   0.3   0.3   0.0   0.0   0.1   0.5   0.6   0.5   0.5  0.61  0.43  0.21  0.00  0.00   92.91   78.91    0.63    0.00    0.00
 1992 002   147     0     0    10.9   12.3   16557    4.7    7.6   0.2   0.5   0.4   0.3   0.3   0.3   0.3   0.3   0.0   0.0   0.1   0.5   0.6   0.5   0.5  0.61  0.43  0.21  0.00  0.00   93.78   79.59    0.63    0.00    0.00
 1992 003   148     0     0    10.9   12.3   16556    4.5    7.9   0.3   0.3   0.3   0.3   0.3   0.3   0.3   0.3   0.0   0.0   0.3   0.6   0.6   0.5   0.5  0.61  0.43  0.20  0.00  0.00   94.67   80.03    0.63    0.00    0.00
 1992 004   149     0     0    10.9   12.4   16556    4.6    7.8   0.6   0.3   0.3   0.3   0.3   0.3   0.3   0.3   0.0   0.0   0.0   0.7   0.6   0.5   0.5  0.60  0.43  0.20  0.00  0.00   95.53   80.68    0.63    0.00    0.00
 1992 005   150     0     0    10.9   12.3   16555    4.6    7.6   0.3   0.5   0.3   0.3   0.3   0.3   0.3   0.3   0.0   0.0   0.2   0.5   0.6   0.5   0.5  0.60  0.42  0.20  0.00  0.00   96.38   81.33    0.63    0.00    0.00
 1992 006   151     0     0    10.9   12.2   16554    4.7    7.6   0.5   0.4   0.3   0.3   0.3   0.3   0.3   0.3   0.0   0.0   0.1   0.5   0.6   0.5   0.5  0.60  0.42  0.20  0.00  0.00   97.21   81.99    0.63    0.00    0.00
 1992 007   152     0     0    10.9   12.1   16554    4.6    7.5   0.4   0.4   0.3   0.3   0.3   0.3   0.3   0.3   0.0   0.0   0.1   0.5   0.6   0.5   0.5  0.60  0.42  0.19  0.00  0.00   98.02   82.60    0.63    0.00    0.00
 1992 008   153     0     0    10.9   12.1   16553    4.6    7.5   0.4   0.4   0.3   0.3   0.3   0.3   0.3   0.3   0.0   0.0   0.1   0.5   0.6   0.5   0.5  0.60  0.42  0.19  0.00  0.00   98.84   83.23    0.63    0.00    0.00
 1992 009   154     0     0    10.9   12.1   16552    4.7    7.5   0.4   0.4   0.3   0.3   0.3   0.3   0.3   0.3   0.0   0.0   0.1   0.5   0.6   0.5   0.5  0.60  0.42  0.19  0.00  0.00   99.68   83.89    0.63    0.00    0.00
 1992 010   155     0     0    10.9   12.1   16551    4.7    7.4   0.4   0.4   0.3   0.3   0.3   0.3   0.3   0.3   0.0   0.0   0.1   0.5   0.6   0.5   0.5  0.60  0.42  0.19  0.00  0.00  100.53   84.56    0.63    0.00    0.00
 1992 011   156     0     0    10.9   12.1   16551    4.7    7.4   0.4   0.4   0.3   0.3   0.3   0.3   0.3   0.3   0.0   0.0   0.1   0.4   0.6   0.5   0.5  0.60  0.42  0.19  0.00  0.00  101.37   85.23    0.63    0.00    0.00
 1992 012   157     0     0    10.9   12.9   16550    5.3    7.6   0.6   0.6   0.4   0.4   0.3   0.3   0.3   0.3   0.0   0.0   0.1   0.4   0.7   0.5   0.5  0.61  0.42  0.18  0.00  0.00  102.19   85.90    0.63    0.00    0.00
 1992 013   158     0     0    10.9   13.7   16549    6.0    7.7   0.7   0.7   0.5   0.4   0.4   0.3   0.3   0.3   0.0   0.0   0.1   0.4   0.7   0.5   0.5  0.63  0.42  0.18  0.00  0.00  102.98   86.56    0.63    0.00    0.00
 1992 014   159     0     0    10.9   14.4   16549    6.7    7.8   0.9   0.9   0.6   0.5   0.4   0.3   0.3   0.3   0.0   0.0   0.1   0.4   0.8   0.5   0.5  0.64  0.41  0.18  0.00  0.00  103.74   87.22    0.63    0.00    0.00

*DSSAT Cropping System Model Ver. 4.0.2.000               Aug 11, 2016; 15:43:00

*RUN   3        : UYMZ                    
 MODEL          : MZCER040 - Maize           
 EXPERIMENT     : UYMZ0144 MZ    late to create DSS                             
 TREATMENT  1   : UYMZ                    

@YEAR DOY   DAS  NAPC  NI#M    NLCC   NIAD    NOAD   NITD   NHTD  NI1D  NI2D  NI3D  NI4D  NI5D  NI6D  NI7D  NI8D  NI9D  NI10  NH1D  NH2D  NH3D  NH4D  NH5D  NH6D  NH7D  NH8D  NH9D  NH10    NMNC    NITC    NDNC    NIMC    AMLC
 1992 220     0     0     0     0.0   99.4   16645   77.1   22.3  16.6  15.4  15.2   8.6   4.6   0.0   0.1   0.1   0.0   0.0   0.0   1.2   1.5   1.4   1.4  1.50  1.46  1.45  0.00  0.00    0.69    2.29    0.00    0.00    0.00
 1992 221     1     0     0     0.0  100.1   16645   78.4   21.7  16.6  15.7  15.3   8.7   4.7   0.0   0.1   0.1   0.0   0.0   0.1   1.1   1.4   1.4   1.4  1.51  1.43  1.41  0.00  0.00    1.35    3.57    0.00    0.00    0.00
 1992 222     2     0     0     0.0  100.7   16644   79.5   21.2  16.7  15.9  15.5   8.8   4.7   0.1   0.2   0.2   0.0   0.0   0.1   1.0   1.4   1.3   1.3  1.51  1.39  1.36  0.00  0.00    1.94    4.70    0.00    0.00    0.00
 1992 223     3     0     0     0.0  101.2   16644   80.5   20.7   6.2  16.1  19.1   8.9   4.8   0.1   0.2   0.2   0.0   0.0   0.1   0.9   1.4   1.3   1.3  1.51  1.36  1.32  0.00  0.00    2.47    5.68    0.00    0.00    0.00
 1992 224     4     0     0     0.0  101.7   16643   81.3   20.5   6.3  15.6  19.5   9.0   4.8   0.1   0.2   0.3   0.0   0.0   0.1   0.9   1.4   1.2   1.3  1.52  1.33  1.28  0.00  0.00    2.95    6.44    0.00    0.00    0.00
 1992 225     5     0     0     0.0  102.2   16643   82.0   20.2   6.3  15.5  19.6   9.2   4.9   0.1   0.3   0.3   0.0   0.0   0.1   1.0   1.3   1.2   1.2  1.52  1.30  1.24  0.00  0.00    3.39    7.15    0.00    0.00    0.00
 1992 226     6     0     0     0.0  102.6   16642   82.7   19.8   6.4  15.5  19.7   9.3   4.9   0.1   0.3   0.3   0.0   0.0   0.1   0.9   1.3   1.2   1.2  1.52  1.27  1.21  0.00  0.00    3.80    7.94    0.00    0.00    0.00
 1992 227     7     0     0     0.0  103.0   16642   83.5   19.5   6.4  15.7  19.7   9.4   5.0   0.1   0.4   0.4   0.0   0.0   0.1   0.8   1.3   1.1   1.2  1.52  1.25  1.17  0.00  0.00    4.25    8.74    0.00    0.00    0.00
 1992 228     8     0     0     0.0  103.5   16641   84.4   19.1   6.5  15.8  19.7   9.5   5.0   0.2   0.4   0.4   0.0   0.0   0.1   0.8   1.3   1.1   1.1  1.53  1.22  1.14  0.00  0.00    4.72    9.54    0.00    0.00    0.00
 1992 229     9     0     0     0.0  104.0   16641   85.2   18.8   6.7  15.9  19.8   9.7   5.1   0.2   0.4   0.4   0.0   0.0   0.1   0.7   1.3   1.1   1.1  1.53  1.19  1.10  0.00  0.00    5.21   10.35    0.00    0.00    0.00
 1992 230    10     0     0     0.0  104.5   16640   86.0   18.5   6.8  16.0  19.8   9.8   5.1   0.2   0.5   0.5   0.0   0.0   0.1   0.7   1.3   1.0   1.1  1.53  1.17  1.07  0.00  0.00    5.73   11.17    0.00    0.00    0.00
 1992 231    11     0     0     0.0  105.0   16640   86.8   18.2   7.0  16.0  19.9   9.9   5.2   0.2   0.5   0.5   0.0   0.0   0.1   0.7   1.3   1.0   1.0  1.53  1.14  1.04  0.00  0.00    6.28   12.01    0.00    0.00    0.00
 1992 232    12     0     0     0.0  105.6   16639   87.7   17.9   7.2  16.1  20.0  10.0   5.2   0.2   0.5   0.6   0.0   0.0   0.1   0.6   1.3   1.0   1.0  1.54  1.12  1.01  0.00  0.00    6.85   12.86    0.00    0.00    0.00
 1992 233    13     0     0     0.0  106.2   16639   88.5   17.7   7.4  16.2  20.0  10.1   5.3   0.2   0.6   0.6   0.0   0.0   0.1   0.6   1.2   0.9   1.0  1.54  1.10  0.98  0.00  0.00    7.42   13.70    0.00    0.00    0.00
 1992 234    14     0     0     0.0  106.8   16638   89.3   17.4   7.6  16.3  20.1  10.2   5.3   0.3   0.6   0.6   0.0   0.0   0.1   0.6   1.2   0.9   1.0  1.54  1.07  0.95  0.00  0.00    8.01   14.53    0.00    0.00    0.00
 1992 235    15     0     0     0.0  107.4   16637   90.2   17.2   7.8  16.3  20.2  10.3   5.4   0.3   0.6   0.7   0.0   0.0   0.1   0.6   1.2   0.9   0.9  1.54  1.05  0.92  0.00  0.00    8.59   15.35    0.00    0.00    0.00
 1992 236    16     0     0     0.0  107.7   16637   90.8   17.0   7.9  16.3  20.3  10.4   5.4   0.3   0.7   0.7   0.0   0.0   0.1   0.6   1.2   0.9   0.9  1.55  1.03  0.90  0.00  0.00    9.17   16.14    0.00    0.00    0.00
 1992 237    17     0     0     0.0  108.3   16636   91.5   16.8   7.9  16.4  20.3  10.5   5.4   0.3   0.7   0.7   0.0   0.0   0.1   0.5   1.2   0.9   0.9  1.55  1.01  0.87  0.00  0.00    9.74   16.91    0.00    0.00    0.00
 1992 238    18     0     0     0.0  108.9   16636   92.3   16.6   8.1  16.5  20.4  10.6   5.5   0.3   0.7   0.7   0.0   0.0   0.1   0.5   1.2   0.8   0.9  1.55  0.99  0.84  0.00  0.00   10.31   17.69    0.00    0.00    0.00
 1992 239    19     0     0     0.0  109.4   16635   93.0   16.4   8.2  16.5  20.5  10.7   5.5   0.4   0.8   0.8   0.0   0.0   0.1   0.5   1.2   0.8   0.9  1.55  0.97  0.82  0.00  0.00   10.88   18.45    0.00    0.00    0.00
[...]
 1992 301    81     0     0     0.0   43.2   16600   32.1   11.1   0.5   0.6   0.9   4.6   3.5   1.4   2.0   1.7   0.0   0.0   0.1   0.5   0.6   0.5   0.5  1.43  0.45  0.22  0.00  0.00   45.94   55.25    0.00    0.00    0.00
 1992 302    82     0     0     0.0   37.1   16600   26.7   10.4   0.4   0.4   0.4   3.5   2.7   1.2   2.0   1.7   0.0   0.0   0.1   0.5   0.6   0.5   0.5  1.31  0.44  0.21  0.00  0.00   46.70   55.94    0.00    0.00    0.00
 1992 303    83     0     0     0.0   36.2   16599   25.8   10.3   0.5   0.5   0.4   3.2   2.6   1.1   2.0   1.7   0.0   0.0   0.1   0.5   0.6   0.5   0.5  1.27  0.44  0.21  0.00  0.00   47.40   56.53    0.00    0.00    0.00
 1992 304    84     0     0     0.0   32.1   16598   22.4    9.7   0.4   0.4   0.3   2.5   2.0   1.0   2.0   1.7   0.0   0.0   0.1   0.5   0.6   0.5   0.5  1.15  0.44  0.21  0.00  0.00   48.04   57.09    0.00    0.00    0.00
 1992 305    85     0     0     0.0   29.1   16598   19.9    9.2   0.4   0.4   0.3   1.9   1.6   0.8   2.0   1.7   0.0   0.0   0.1   0.4   0.6   0.5   0.5  1.04  0.44  0.20  0.00  0.00   48.63   57.62    0.00    0.00    0.00
 1992 306    86     0     0     0.0   26.7   16597   17.9    8.8   0.4   0.4   0.3   1.4   1.3   0.7   2.0   1.7   0.0   0.0   0.1   0.4   0.6   0.5   0.5  0.95  0.43  0.20  0.00  0.00   49.19   58.11    0.00    0.00    0.00
 1992 307    87     0     0     0.0   24.8   16597   16.3    8.4   0.2   0.4   0.4   1.1   1.0   0.6   2.0   1.7   0.0   0.0   0.1   0.4   0.6   0.5   0.5  0.88  0.43  0.20  0.00  0.00   49.70   58.57    0.00    0.00    0.00
 1992 308    88     0     0     0.0   23.4   16596   15.0    8.4   0.1   0.2   0.4   0.9   0.8   0.5   2.0   1.7   0.0   0.0   0.2   0.5   0.6   0.5   0.5  0.82  0.43  0.20  0.00  0.00   50.38   58.93    0.00    0.00    0.00
 1992 309    89     0     0     0.0   22.5   16596   14.0    8.5   0.2   0.2   0.2   0.7   0.7   0.4   2.1   1.7   0.0   0.0   0.3   0.6   0.7   0.5   0.5  0.78  0.43  0.20  0.00  0.00   51.06   59.22    0.00    0.00    0.00
 1992 310    90     0     0     0.0   21.9   16595   13.7    8.2   0.5   0.4   0.3   0.6   0.5   0.3   2.1   1.7   0.0   0.0   0.1   0.5   0.7   0.5   0.5  0.74  0.42  0.19  0.00  0.00   51.72   59.80    0.00    0.00    0.00
 1992 311    91     0     0     0.0   21.0   16594   13.1    7.9   0.4   0.4   0.3   0.4   0.4   0.3   2.1   1.7   0.0   0.0   0.1   0.5   0.6   0.5   0.5  0.71  0.42  0.19  0.00  0.00   52.34   60.30    0.00    0.00    0.00
 1992 312    92     0     0     0.0   20.5   16594   12.7    7.7   0.4   0.4   0.3   0.4   0.4   0.3   2.1   1.7   0.0   0.0   0.1   0.5   0.6   0.5   0.5  0.68  0.42  0.19  0.00  0.00   52.91   60.75    0.00    0.00    0.00
 1992 313    93     0     0     0.0   20.1   16593   12.5    7.6   0.3   0.3   0.3   0.3   0.3   0.3   2.1   1.7   0.0   0.0   0.1   0.5   0.6   0.5   0.5  0.66  0.42  0.19  0.00  0.00   53.44   61.16    0.00    0.00    0.00
 1992 314    94     0     0     0.0   20.0   16593   12.5    7.5   0.4   0.3   0.3   0.3   0.3   0.3   2.1   1.7   0.0   0.0   0.1   0.5   0.6   0.5   0.5  0.64  0.42  0.19  0.00  0.00   53.98   61.58    0.00    0.00    0.00
 1992 315    95     0     0     0.0   20.0   16592   12.6    7.5   0.4   0.4   0.3   0.3   0.3   0.3   2.1   1.7   0.0   0.0   0.1   0.5   0.6   0.5   0.5  0.63  0.41  0.18  0.00  0.00   54.59   62.07    0.00    0.00    0.00
 1992 316    96     0     0     0.0   20.0   16592   12.6    7.4   0.4   0.4   0.3   0.3   0.3   0.3   2.1   1.8   0.0   0.0   0.1   0.5   0.6   0.5   0.5  0.62  0.41  0.18  0.00  0.00   55.22   62.58    0.00    0.00    0.00
 1992 317    97     0     0     0.0   20.0   16591   12.7    7.3   0.4   0.4   0.3   0.3   0.3   0.3   2.2   1.8   0.0   0.0   0.1   0.5   0.6   0.5   0.5  0.61  0.41  0.18  0.00  0.00   55.86   63.12    0.00    0.00    0.00
 1992 318    98     0     0     0.0   20.0   16590   12.8    7.2   0.4   0.4   0.3   0.3   0.3   0.3   2.2   1.8   0.0   0.0   0.1   0.5   0.6   0.5   0.5  0.60  0.41  0.18  0.00  0.00   56.52   63.71    0.00    0.00    0.00
 1992 319    99     0     0     0.0   20.0   16590   12.8    7.1   0.4   0.4   0.3   0.3   0.3   0.3   2.2   1.8   0.0   0.0   0.1   0.4   0.6   0.5   0.5  0.60  0.41  0.18  0.00  0.00   57.17   64.29    0.00    0.00    0.00
 1992 320   100     0     0     0.0   19.9   16589   12.9    7.0   0.1   0.3   0.4   0.4   0.3   0.3   2.2   1.8   0.0   0.0   0.1   0.4   0.6   0.5   0.5  0.59  0.41  0.18  0.00  0.00   57.78   64.86    0.00    0.00    0.00
 1992 321   101     0     0     0.0   20.0   16589   12.5    7.5   0.1   0.3   0.3   0.3   0.3   0.3   2.2   1.8   0.0   0.0   0.2   0.6   0.7   0.5   0.5  0.59  0.40  0.17  0.00  0.00   58.56   65.08    0.00    0.00    0.00
 1992 322   102     0     0     0.0   19.9   16588   12.6    7.3   0.5   0.4   0.3   0.3   0.3   0.3   2.1   1.8   0.0   0.0   0.1   0.5   0.6   0.6   0.5  0.58  0.40  0.17  0.00  0.00   59.32   65.76    0.00    0.00    0.00
 1992 323   103     0     0     0.0   19.2   16587   12.0    7.3   0.3   0.4   0.3   0.3   0.3   0.3   1.8   1.8   0.0   0.0   0.1   0.5   0.6   0.5   0.5  0.58  0.40  0.17  0.00  0.00   60.04   66.29    0.00    0.00    0.00
 1992 324   104     0     0     0.0   18.7   16587   11.4    7.2   0.4   0.4   0.3   0.3   0.3   0.3   1.6   1.8   0.0   0.0   0.1   0.5   0.6   0.5   0.5  0.57  0.40  0.17  0.00  0.00   60.73   66.84    0.00    0.00    0.00
 1992 325   105     0     0     0.0   18.2   16586   11.0    7.2   0.4   0.4   0.3   0.3   0.3   0.3   1.4   1.8   0.0   0.0   0.1   0.5   0.6   0.5   0.5  0.57  0.40  0.17  0.00  0.00   61.41   67.37    0.00    0.00    0.00
 1992 326   106     0     0     0.0   17.8   16585   10.6    7.2   0.4   0.4   0.3   0.3   0.3   0.3   1.2   1.8   0.0   0.0   0.1   0.5   0.6   0.5   0.5  0.57  0.40  0.17  0.00  0.00   62.10   67.91    0.00    0.00    0.00
 1992 327   107     0     0     0.0   17.4   16585   10.2    7.1   0.4   0.4   0.3   0.3   0.3   0.3   1.1   1.8   0.0   0.0   0.1   0.5   0.6   0.5   0.5  0.56  0.40  0.17  0.00  0.00   62.78   68.45    0.00    0.00    0.00
 1992 328   108     0     0     0.0   17.0   16584    9.9    7.1   0.4   0.4   0.3   0.3   0.3   0.3   1.0   1.8   0.0   0.0   0.1   0.5   0.6   0.5   0.5  0.56  0.39  0.16  0.00  0.00   63.45   68.98    0.00    0.00    0.00
 1992 329   109     0     0     0.0   16.7   16583    9.6    7.1   0.4   0.4   0.3   0.3   0.3   0.3   0.9   1.8   0.0   0.0   0.1   0.5   0.6   0.5   0.5  0.56  0.39  0.16  0.00  0.00   64.07   69.49    0.00    0.00    0.00
 1992 330   110     0     0     0.0   16.4   16583    9.4    7.0   0.4   0.4   0.3   0.3   0.3   0.3   0.8   1.8   0.0   0.0   0.1   0.5   0.6   0.5   0.5  0.56  0.39  0.16  0.00  0.00   64.67   69.98    0.00    0.00    0.00
 1992 331   111     0     0     0.0   16.2   16582    9.2    7.0   0.4   0.4   0.3   0.3   0.3   0.3   0.7   1.8   0.0   0.0   0.1   0.5   0.6   0.5   0.5  0.56  0.39  0.16  0.00  0.00   65.22   70.45    0.00    0.00    0.00
 1992 332   112     0     0     0.0   15.9   16582    9.0    6.9   0.4   0.4   0.3   0.3   0.3   0.3   0.6   1.8   0.0   0.0   0.1   0.5   0.6   0.5   0.5  0.55  0.39  0.16  0.00  0.00   65.76   70.92    0.00    0.00    0.00
 1992 333   113     0     0     0.0   15.8   16581    8.9    6.8   0.4   0.4   0.3   0.3   0.3   0.3   0.5   1.8   0.0   0.0   0.1   0.4   0.6   0.5   0.5  0.55  0.38  0.16  0.00  0.00   66.31   71.43    0.00    0.00    0.00
 1992 334   114     0     0     0.0   15.6   16581    8.8    6.8   0.2   0.4   0.4   0.3   0.3   0.3   0.5   1.9   0.0   0.0   0.1   0.4   0.6   0.5   0.5  0.55  0.38  0.16  0.00  0.00   66.86   71.95    0.00    0.00    0.00
 1992 335   115     0     0     0.0   15.5   16580    8.5    7.0   0.1   0.2   0.3   0.4   0.3   0.3   0.4   1.9   0.0   0.0   0.2   0.5   0.6   0.5   0.5  0.55  0.38  0.16  0.00  0.00   67.54   72.29    0.00    0.00    0.00
 1992 336   116     0     0     0.0   15.6   16580    8.2    7.4   0.2   0.2   0.3   0.3   0.3   0.3   0.4   1.9   0.0   0.0   0.3   0.6   0.7   0.5   0.5  0.55  0.38  0.16  0.00  0.00   68.28   72.53    0.00    0.00    0.00
 1992 337   117     0     0     0.0   15.7   16579    8.6    7.2   0.6   0.4   0.3   0.3   0.3   0.3   0.3   1.9   0.0   0.0   0.0   0.5   0.7   0.6   0.5  0.55  0.37  0.16  0.00  0.00   69.03   73.19    0.00    0.00    0.00
 1992 338   118     0     0     0.0   15.6   16578    8.5    7.1   0.3   0.4   0.3   0.3   0.3   0.3   0.3   1.9   0.0   0.0   0.2   0.5   0.6   0.5   0.5  0.55  0.37  0.16  0.00  0.00   69.76   73.74    0.00    0.00    0.00
 1992 339   119     0     0     0.0   15.5   16577    8.5    7.0   0.5   0.4   0.3   0.3   0.3   0.3   0.3   1.9   0.0   0.0   0.1   0.5   0.6   0.5   0.5  0.55  0.37  0.15  0.00  0.00   70.49   74.37    0.00    0.00    0.00
 1992 340   120     0     0     0.0   15.3   16577    8.3    7.0   0.4   0.4   0.3   0.3   0.3   0.3   0.3   1.8   0.0   0.0   0.1   0.5   0.6   0.5   0.5  0.54  0.36  0.15  0.00  0.00   71.22   74.95    0.00    0.00    0.00
 1992 341   121     0     0     0.0   15.0   16576    8.1    6.9   0.2   0.4   0.4   0.3   0.3   0.3   0.3   1.8   0.0   0.0   0.1   0.5   0.6   0.5   0.5  0.54  0.36  0.15  0.00  0.00   71.94   75.54    0.00    0.00    0.00
 1992 342   122     0     0     0.0   14.8   16575    7.5    7.4   0.2   0.3   0.3   0.3   0.3   0.3   0.3   1.7   0.0   0.0   0.3   0.6   0.7   0.6   0.5  0.54  0.35  0.15  0.00  0.00   72.69   75.76    0.00    0.00    0.00
 1992 343   123     0     0     0.0   14.9   16575    7.6    7.3   0.6   0.3   0.3   0.3   0.3   0.3   0.3   1.6   0.0   0.0   0.0   0.7   0.7   0.5   0.5  0.54  0.35  0.15  0.00  0.00   73.46   76.27    0.00    0.00    0.00
 1992 344   124     0     0     0.0   14.5   16574    7.5    7.0   0.3   0.5   0.3   0.3   0.3   0.3   0.3   1.5   0.0   0.0   0.1   0.5   0.6   0.5   0.5  0.54  0.35  0.15  0.00  0.00   74.22   76.94    0.00    0.00    0.00
 1992 345   125     0     0     0.0   14.2   16573    7.3    6.9   0.5   0.4   0.3   0.3   0.3   0.3   0.3   1.4   0.0   0.0   0.1   0.5   0.6   0.5   0.5  0.54  0.34  0.15  0.00  0.00   74.97   77.58    0.00    0.00    0.00
 1992 346   126     0     0     0.0   13.9   16573    7.0    6.9   0.4   0.4   0.3   0.3   0.3   0.3   0.3   1.3   0.0   0.0   0.1   0.5   0.6   0.5   0.5  0.54  0.34  0.15  0.00  0.00   75.72   78.18    0.00    0.00    0.00
 1992 347   127     0     0     0.0   13.7   16572    6.9    6.9   0.4   0.4   0.3   0.3   0.3   0.3   0.3   1.2   0.0   0.0   0.1   0.5   0.6   0.5   0.5  0.54  0.34  0.15  0.00  0.00   76.44   78.77    0.00    0.00    0.00
 1992 348   128     0     0     0.0   13.5   16571    6.7    6.9   0.4   0.4   0.3   0.3   0.3   0.3   0.3   1.1   0.0   0.0   0.1   0.5   0.6   0.5   0.5  0.54  0.33  0.15  0.00  0.00   77.16   79.37    0.00    0.00    0.00
 1992 349   129     0     0     0.0   13.3   16571    6.5    6.8   0.4   0.4   0.3   0.3   0.3   0.3   0.3   1.1   0.0   0.0   0.1   0.5   0.6   0.5   0.5  0.54  0.33  0.15  0.00  0.00   77.87   79.98    0.00    0.00    0.00
 1992 350   130     0     0     0.0   13.1   16570    6.4    6.7   0.4   0.4   0.3   0.3   0.3   0.3   0.3   1.0   0.0   0.0   0.1   0.5   0.6   0.5   0.5  0.54  0.32  0.15  0.00  0.00   78.56   80.59    0.00    0.00    0.00
 1992 351   131     0     0     0.0   12.9   16569    6.2    6.7   0.4   0.4   0.3   0.3   0.3   0.3   0.3   1.0   0.0   0.0   0.1   0.4   0.6   0.5   0.5  0.53  0.32  0.14  0.00  0.00   79.21   81.19    0.00    0.00    0.00
 1992 352   132     0     0     0.0   12.7   16569    6.1    6.6   0.4   0.4   0.3   0.3   0.3   0.3   0.3   0.9   0.0   0.0   0.1   0.4   0.6   0.5   0.5  0.53  0.32  0.14  0.00  0.00   79.84   81.79    0.00    0.00    0.00
 1992 353   133     0     0     0.0   12.4   16568    5.9    6.5   0.2   0.4   0.4   0.3   0.3   0.3   0.3   0.8   0.0   0.0   0.1   0.4   0.6   0.5   0.5  0.53  0.31  0.14  0.00  0.00   80.44   82.37    0.00    0.00    0.00
 1992 354   134     0     0     0.0   12.3   16568    5.6    6.7   0.2   0.3   0.3   0.3   0.3   0.3   0.3   0.8   0.0   0.0   0.2   0.5   0.6   0.5   0.5  0.53  0.31  0.14  0.00  0.00   81.15   82.74    0.00    0.00    0.00
 1992 355   135     0     0     0.0   12.4   16567    5.9    6.6   0.6   0.4   0.3   0.3   0.3   0.3   0.3   0.7   0.0   0.0   0.0   0.5   0.6   0.5   0.5  0.53  0.30  0.14  0.00  0.00   81.87   83.50    0.00    0.00    0.00
 1992 356   136     0     0     0.0   12.2   16566    5.6    6.6   0.3   0.4   0.3   0.3   0.3   0.3   0.3   0.7   0.0   0.0   0.2   0.5   0.6   0.5   0.5  0.53  0.30  0.14  0.00  0.00   82.60   84.10    0.00    0.00    0.00
 1992 357   137     0     0     0.0   12.1   16566    5.7    6.4   0.5   0.4   0.3   0.3   0.3   0.3   0.3   0.7   0.0   0.0   0.1   0.5   0.6   0.5   0.5  0.53  0.30  0.14  0.00  0.00   83.31   84.83    0.00    0.00    0.00
 1992 358   138     0     0     0.0   12.0   16565    5.5    6.5   0.3   0.4   0.3   0.3   0.3   0.3   0.3   0.6   0.0   0.0   0.2   0.4   0.6   0.5   0.4  0.53  0.29  0.13  0.00  0.00   84.03   85.40    0.00    0.00    0.00
 1992 359   139     0     0     0.0   11.8   16564    5.5    6.3   0.5   0.4   0.4   0.3   0.3   0.3   0.3   0.6   0.0   0.0   0.0   0.4   0.6   0.5   0.4  0.53  0.29  0.13  0.00  0.00   84.73   86.17    0.00    0.00    0.00
 1992 360   140     0     0     0.0   11.7   16564    5.0    6.7   0.3   0.3   0.3   0.3   0.3   0.3   0.3   0.6   0.0   0.0   0.2   0.6   0.7   0.5   0.4  0.53  0.28  0.13  0.00  0.00   85.49   86.44    0.00    0.00    0.00
 1992 361   141     0     0     0.0   11.8   16563    5.4    6.4   0.5   0.5   0.3   0.3   0.3   0.3   0.3   0.5   0.0   0.0   0.1   0.5   0.6   0.5   0.4  0.53  0.28  0.13  0.00  0.00   86.22   87.18    0.00    0.00    0.00
 1992 362   142     0     0     0.0   11.5   16562    5.1    6.4   0.4   0.4   0.3   0.3   0.3   0.3   0.3   0.5   0.0   0.0   0.1   0.5   0.6   0.5   0.4  0.53  0.28  0.13  0.00  0.00   86.93   87.75    0.00    0.00    0.00
 1992 363   143     0     0     0.0   11.5   16562    5.1    6.4   0.5   0.4   0.3   0.3   0.3   0.3   0.3   0.5   0.0   0.0   0.1   0.5   0.6   0.5   0.4  0.53  0.27  0.13  0.00  0.00   87.63   88.37    0.00    0.00    0.00
 1992 364   144     0     0     0.0   11.4   16561    5.0    6.3   0.4   0.4   0.3   0.3   0.3   0.3   0.3   0.4   0.0   0.0   0.1   0.5   0.6   0.5   0.4  0.53  0.27  0.13  0.00  0.00   88.34   88.98    0.00    0.00    0.00
 1992 365   145     0     0     0.0   11.2   16560    5.0    6.3   0.4   0.4   0.3   0.3   0.3   0.3   0.3   0.4   0.0   0.0   0.1   0.5   0.6   0.5   0.4  0.53  0.27  0.12  0.00  0.00   89.01   89.57    0.00    0.00    0.00
 1992 366   146     0     0     0.0   11.1   16560    4.9    6.2   0.1   0.3   0.4   0.3   0.4   0.3   0.3   0.4   0.0   0.0   0.1   0.4   0.6   0.5   0.4  0.53  0.26  0.12  0.00  0.00   89.66   90.13    0.00    0.00    0.00
 1993 001   147     0     0     0.0   11.2   16559    4.5    6.7   0.2   0.1   0.2   0.2   0.2   0.3   0.3   0.4   0.0   0.0   0.1   0.6   0.7   0.5   0.4  0.53  0.26  0.12  0.00  0.00   90.33   90.33    0.00    0.00    0.00
 1993 002   148     0     0     0.1   11.4   16559    4.2    7.2   0.2   0.1   0.2   0.2   0.2   0.3   0.3   0.4   0.0   0.0   0.2   0.7   0.8   0.5   0.5  0.54  0.26  0.12  0.00  0.00   90.92   90.39    0.00    0.00    0.00
 1993 003   149     0     0     0.1   11.5   16558    4.1    7.5   0.2   0.2   0.2   0.2   0.2   0.2   0.3   0.4   0.0   0.0   0.3   0.7   0.8   0.6   0.5  0.55  0.27  0.12  0.00  0.00   91.55   90.48    0.00    0.00    0.00
 1993 004   150     0     0     0.3   11.6   16557    3.9    7.8   0.2   0.2   0.2   0.2   0.2   0.2   0.3   0.4   0.0   0.0   0.4   0.8   0.8   0.6   0.5  0.56  0.28  0.13  0.00  0.00   92.16   90.58    0.00    0.00    0.00
 1993 005   151     0     0     0.5   11.8   16557    3.8    8.0   0.3   0.2   0.2   0.2   0.2   0.2   0.2   0.3   0.0   0.0   0.4   0.8   0.8   0.6   0.5  0.57  0.28  0.13  0.00  0.00   92.81   90.71    0.01    0.00    0.00
 1993 006   152     0     0     0.5   11.9   16556    4.1    7.8   0.8   0.2   0.2   0.2   0.2   0.2   0.2   0.3   0.0   0.0   0.1   0.8   0.8   0.6   0.6  0.57  0.29  0.13  0.00  0.00   93.53   91.13    0.01    0.00    0.00
 1993 007   153     0     0     0.5   11.7   16556    4.2    7.5   0.3   0.5   0.2   0.2   0.2   0.2   0.2   0.3   0.0   0.0   0.1   0.5   0.8   0.6   0.6  0.58  0.29  0.13  0.00  0.00   94.31   91.55    0.02    0.00    0.00
 1993 008   154     0     0     0.6   11.8   16555    4.5    7.3   0.3   0.4   0.4   0.3   0.3   0.2   0.2   0.3   0.0   0.0   0.1   0.5   0.6   0.6   0.6  0.58  0.30  0.13  0.00  0.00   95.13   92.17    0.02    0.00    0.00
 1993 009   155     0     0     0.6   11.9   16554    4.0    7.9   0.3   0.3   0.3   0.3   0.3   0.2   0.3   0.2   0.0   0.0   0.3   0.6   0.7   0.6   0.6  0.59  0.30  0.14  0.00  0.00   95.97   92.29    0.02    0.00    0.00
 1993 010   156     0     0     0.6   12.3   16553    4.4    7.9   0.7   0.3   0.3   0.3   0.3   0.3   0.3   0.3   0.0   0.0   0.0   0.7   0.8   0.6   0.6  0.59  0.30  0.14  0.00  0.00   96.83   92.70    0.02    0.00    0.00
 1993 011   157     0     0     0.6   12.2   16553    4.5    7.7   0.3   0.5   0.3   0.3   0.3   0.3   0.3   0.3   0.0   0.0   0.2   0.5   0.7   0.6   0.6  0.59  0.31  0.14  0.00  0.00   97.71   93.17    0.02    0.00    0.00
 1993 012   158     0     0     0.6   12.1   16552    4.8    7.4   0.5   0.4   0.4   0.3   0.3   0.3   0.3   0.3   0.0   0.0   0.1   0.5   0.6   0.6   0.6  0.59  0.31  0.14  0.00  0.00   98.58   93.95    0.02    0.00    0.00
 1993 013   159     0     0     0.6   12.0   16551    4.7    7.3   0.4   0.4   0.3   0.3   0.3   0.3   0.3   0.3   0.0   0.0   0.1   0.5   0.6   0.6   0.6  0.59  0.31  0.14  0.00  0.00   99.49   94.65    0.02    0.00    0.00
 1993 014   160     0     0     0.6   11.9   16550    4.8    7.2   0.5   0.4   0.3   0.3   0.3   0.3   0.3   0.3   0.0   0.0   0.1   0.5   0.6   0.6   0.6  0.59  0.31  0.14  0.00  0.00  100.44   95.42    0.02    0.00    0.00
 1993 015   161     0     0     0.6   11.9   16550    4.7    7.2   0.1   0.3   0.4   0.3   0.3   0.3   0.3   0.3   0.0   0.0   0.1   0.4   0.6   0.6   0.6  0.59  0.31  0.14  0.00  0.00  101.40   96.15    0.02    0.00    0.00
 1993 016   162     0     0     0.7   11.9   16549    4.2    7.7   0.3   0.3   0.3   0.3   0.3   0.2   0.3   0.3   0.0   0.0   0.1   0.6   0.7   0.6   0.6  0.61  0.32  0.14  0.00  0.00  102.37   96.41    0.02    0.00    0.00
 1993 017   163     0     0     0.7   12.3   16548    4.3    8.0   0.4   0.3   0.3   0.3   0.3   0.2   0.3   0.3   0.0   0.0   0.1   0.7   0.8   0.6   0.6  0.61  0.32  0.14  0.00  0.00  103.34   96.70    0.02    0.00    0.00
 1993 018   164     0     0     0.7   12.3   16547    4.5    7.8   0.4   0.5   0.3   0.3   0.3   0.2   0.3   0.3   0.0   0.0   0.1   0.5   0.8   0.6   0.6  0.62  0.32  0.14  0.00  0.00  104.26   97.23    0.02    0.00    0.00
 1993 019   165     0     0     0.7   12.2   16547    4.6    7.7   0.4   0.4   0.3   0.3   0.3   0.3   0.3   0.3   0.0   0.0   0.1   0.5   0.6   0.6   0.6  0.62  0.32  0.14  0.00  0.00  105.15   97.79    0.02    0.00    0.00
 1993 020   166     0     0     0.7   13.1   16546    5.2    7.9   0.6   0.6   0.4   0.3   0.3   0.3   0.3   0.3   0.0   0.0   0.1   0.5   0.7   0.6   0.6  0.64  0.33  0.14  0.00  0.00  106.02   98.45    0.02    0.00    0.00
 1993 021   167     0     0     0.7   14.0   16545    5.9    8.1   0.8   0.7   0.5   0.4   0.3   0.3   0.3   0.3   0.0   0.0   0.1   0.5   0.8   0.6   0.6  0.66  0.33  0.14  0.00  0.00  106.88   99.12    0.02    0.00    0.00
 1993 022   168     0     0     0.7   14.9   16545    6.6    8.3   1.0   0.9   0.6   0.4   0.4   0.3   0.3   0.3   0.0   0.0   0.1   0.5   0.8   0.6   0.6  0.67  0.34  0.14  0.00  0.00  107.77   99.82    0.02    0.00    0.00
