*SOIL-PLANT-ATMOSPHERE MODULE OUTPUT FILE

*DSSAT Cropping System Model Ver. 4.0.2.000               Jul 19, 2016; 16:47:46

*RUN   1        : UYMZ                    
 MODEL          : MZCER040 - Maize           
 EXPERIMENT     : UYMZ0043 MZ    late to create DSS                             
 TREATMENT  1   : UYMZ                    

@YEAR DOY   DAS   SRAA   TMXA   TMNA   EOAA   ETAA   EPAA   ESAA   EFAD   ETAC   EPAC   ESAC   EFAC
 1990 184     0   3.90  14.00   9.80  0.795  0.795  0.000  0.795  0.000    0.8    0.0    0.8    0.0
 1990 185     1   4.70  16.50   9.60  0.991  0.991  0.000  0.991  0.000    1.8    0.0    1.8    0.0
 1990 186     2   3.70  17.40  13.40  0.818  0.818  0.000  0.818  0.000    2.6    0.0    2.6    0.0
 1990 187     3   5.40  19.70  13.20  1.228  1.228  0.000  1.228  0.000    3.8    0.0    3.8    0.0
 1990 188     4   3.80  15.80  11.30  0.806  0.806  0.000  0.806  0.000    4.6    0.0    4.6    0.0
 1990 189     5   4.30  19.60  13.50  0.980  0.941  0.000  0.941  0.000    5.6    0.0    5.6    0.0
 1990 190     6   5.60  17.10  11.30  1.210  1.210  0.000  1.210  0.000    6.8    0.0    6.8    0.0
 1990 191     7   7.60  13.90   6.30  1.495  1.037  0.000  1.037  0.000    7.8    0.0    7.8    0.0
 1990 192     8  13.70  18.20   5.20  2.840  0.891  0.000  0.891  0.000    8.7    0.0    8.7    0.0
 1990 193     9  13.80  17.60   3.90  2.800  0.794  0.000  0.794  0.000    9.5    0.0    9.5    0.0
 1990 194    10  13.40  19.70   6.00  2.858  0.723  0.000  0.723  0.000   10.2    0.0   10.2    0.0
 1990 195    11   9.40  19.20   7.80  2.024  0.668  0.000  0.668  0.000   10.9    0.0   10.9    0.0
 1990 196    12   6.90  20.00  10.10  1.534  0.624  0.000  0.624  0.000   11.5    0.0   11.5    0.0
 1990 197    13   5.50  15.70  10.10  1.152  1.152  0.000  1.152  0.000   12.7    0.0   12.7    0.0
 1990 198    14   8.40  16.00   9.40  1.756  1.456  0.000  1.456  0.000   14.1    0.0   14.1    0.0
 1990 199    15  12.00  11.20   1.60  2.153  2.078  0.000  2.078  0.000   16.2    0.0   16.2    0.0
 1990 200    16  12.30   8.90  -2.00  2.036  2.036  0.000  2.036  0.000   18.2    0.0   18.2    0.0
 1990 201    17  11.70   8.10  -1.20  1.927  1.927  0.000  1.927  0.000   20.2    0.0   20.2    0.0
 1990 202    18   9.40   8.60  -1.00  1.566  1.296  0.000  1.296  0.000   21.5    0.0   21.5    0.0
 1990 203    19  12.50   8.80  -5.60  1.976  1.039  0.000  1.039  0.000   22.5    0.0   22.5    0.0
 1990 204    20  12.50  13.90  -0.70  2.286  0.893  0.000  0.893  0.000   23.4    0.0   23.4    0.0
 1990 205    21  14.00  14.70   2.10  2.671  0.795  0.000  0.795  0.000   24.2    0.0   24.2    0.0
 1990 206    22  14.70   6.50  -1.00  2.358  0.724  0.000  0.724  0.000   24.9    0.0   24.9    0.0
 1990 207    23  11.00  12.00   4.00  2.052  0.669  0.000  0.669  0.000   25.6    0.0   25.6    0.0
 1990 208    24  13.50  16.00   1.70  2.617  0.625  0.000  0.625  0.000   26.2    0.0   26.2    0.0
 1990 209    25  14.90  10.20   1.10  2.615  0.588  0.000  0.588  0.000   26.8    0.0   26.8    0.0
 1990 210    26  14.20  12.70  -1.10  2.535  0.558  0.000  0.558  0.000   27.4    0.0   27.4    0.0
 1990 211    27  12.80  12.80  -1.00  2.292  0.531  0.000  0.531  0.000   27.9    0.0   27.9    0.0
 1990 212    28  13.00  14.90  -1.90  2.385  0.508  0.000  0.508  0.000   28.4    0.0   28.4    0.0
 1990 213    29  13.00  17.50   3.80  2.632  0.124  0.000  0.124  0.000   28.5    0.0   28.5    0.0
 1990 214    30  14.40  19.90   3.70  3.014  0.092  0.000  0.092  0.000   28.6    0.0   28.6    0.0
 1990 215    31  14.80  21.50   5.00  3.206  0.090  0.000  0.090  0.000   28.7    0.0   28.7    0.0
 1990 216    32  14.80  21.90   5.70  3.244  0.088  0.000  0.088  0.000   28.8    0.0   28.8    0.0
 1990 217    33  14.50  25.90  10.20  3.479  0.086  0.000  0.086  0.000   28.9    0.0   28.9    0.0
 1990 218    34  15.60  23.40  13.90  3.741  0.085  0.000  0.085  0.000   29.0    0.0   29.0    0.0
 1990 219    35  15.20  25.90  14.40  3.773  0.083  0.000  0.083  0.000   29.1    0.0   29.1    0.0
 1990 220    36  12.90  25.00  12.80  3.126  0.089  0.007  0.082  0.000   29.1    0.0   29.1    0.0
 1990 221    37  14.70  20.50  10.30  3.293  0.090  0.009  0.081  0.000   29.2    0.0   29.2    0.0
 1990 222    38  15.10  22.30   8.90  3.421  0.548  0.010  0.538  0.000   29.8    0.0   29.8    0.0
 1990 223    39  15.40  28.00  11.90  3.840  0.525  0.011  0.514  0.000   30.3    0.0   30.3    0.0
 1990 224    40  15.30  28.40  12.10  3.838  0.505  0.011  0.493  0.000   30.8    0.0   30.8    0.0
 1990 225    41  14.50  28.00  12.80  3.640  0.487  0.013  0.475  0.000   31.3    0.1   31.2    0.0
 1990 226    42   5.20  25.80  14.90  1.292  0.375  0.013  0.362  0.000   31.7    0.1   31.6    0.0
 1990 227    43   7.50  15.80  10.50  1.576  0.088  0.015  0.073  0.000   31.8    0.1   31.7    0.0
 1990 228    44  14.80  18.90   8.50  3.186  3.186  0.059  3.126  0.000   34.9    0.1   34.8    0.0
 1990 229    45  16.80  21.40   7.70  3.711  3.383  0.091  3.292  0.000   38.3    0.2   38.1    0.0
 1990 230    46  16.20  20.80   6.00  3.491  3.155  0.112  3.043  0.000   41.5    0.4   41.1    0.0
 1990 231    47  12.80  20.80  10.40  2.866  1.550  0.111  1.440  0.000   43.0    0.5   42.6    0.0
 1990 232    48  17.30  21.00  10.30  3.876  1.293  0.185  1.108  0.000   44.3    0.6   43.7    0.0
 1990 233    49  14.80  20.90   6.70  3.202  1.119  0.184  0.935  0.000   45.4    0.8   44.6    0.0
 1990 234    50  13.00  18.40   8.30  2.755  1.004  0.180  0.824  0.000   46.4    1.0   45.4    0.0
 1990 235    51  17.00  15.60   4.40  3.329  0.988  0.242  0.746  0.000   47.4    1.3   46.2    0.0
 1990 236    52  11.20  18.10   3.70  2.260  0.854  0.168  0.686  0.000   48.3    1.4   46.9    0.0
 1990 237    53  13.00  24.60   9.60  3.020  0.865  0.226  0.639  0.000   49.2    1.6   47.5    0.0
 1990 238    54  16.40  25.50  11.70  3.912  0.946  0.347  0.600  0.000   50.1    2.0   48.1    0.0
 1990 239    55   6.80  17.60   5.50  1.379  1.379  0.146  1.233  0.000   51.5    2.1   49.3    0.0
 1990 240    56  18.80   9.70   2.00  3.250  3.250  0.362  2.888  0.000   54.7    2.5   52.2    0.0
 1990 241    57  17.80  14.60  -1.20  3.229  3.229  0.305  2.924  0.000   58.0    2.8   55.2    0.0
 1990 242    58  16.80  21.80   2.90  3.559  2.279  0.170  2.108  0.000   60.2    3.0   57.3    0.0
 1990 243    59   5.50  11.80   5.50  1.031  1.031  0.054  0.977  0.000   61.3    3.0   58.2    0.0
 1990 244    60  10.70  10.20   0.80  1.856  1.194  0.099  1.095  0.000   62.5    3.1   59.3    0.0
 1990 245    61  17.70  11.60  -2.30  3.043  2.764  0.119  2.645  0.000   65.2    3.2   62.0    0.0
 1990 246    62  19.80  16.80   2.50  3.909  1.459  0.049  1.410  0.000   66.7    3.3   63.4    0.0
 1990 247    63   5.60  16.40   7.10  1.149  1.113  0.018  1.095  0.000   67.8    3.3   64.5    0.0
 1990 248    64   6.00  18.60  13.40  1.343  0.958  0.031  0.927  0.000   68.8    3.3   65.4    0.0
 1990 249    65   5.70  15.40  13.40  1.220  1.220  0.044  1.176  0.000   70.0    3.4   66.6    0.0
 1990 250    66   5.80  15.90  12.80  1.242  1.066  0.049  1.018  0.000   71.0    3.4   67.6    0.0
 1990 251    67   5.80  14.30  10.30  1.186  1.186  0.051  1.135  0.000   72.2    3.5   68.7    0.0
 1990 252    68  19.70  23.50   7.80  4.462  4.462  0.207  4.255  0.000   76.7    3.7   73.0    0.0
 1990 253    69  15.20  27.50  11.60  3.723  2.579  0.252  2.326  0.000   79.3    3.9   75.3    0.0
 1990 254    70   9.60  23.10  10.70  2.203  2.203  0.199  2.004  0.000   81.5    4.1   77.3    0.0
 1990 255    71  17.10  13.80   5.20  3.268  3.268  0.354  2.914  0.000   84.7    4.5   80.2    0.0
 1990 256    72  18.80  11.80   2.70  3.383  2.634  0.429  2.205  0.000   87.4    4.9   82.4    0.0
 1990 257    73  20.40  14.20   0.50  3.726  3.024  0.471  2.553  0.000   90.4    5.4   85.0    0.0
 1990 258    74  21.40  18.40   3.40  4.312  1.801  0.401  1.400  0.000   92.2    5.8   86.4    0.0
 1990 259    75  17.80  21.60   7.90  3.906  1.471  0.381  1.090  0.000   93.7    6.2   87.5    0.0
 1990 260    76  10.60  17.70  10.60  2.254  1.191  0.267  0.924  0.000   94.9    6.5   88.4    0.0
 1990 261    77   9.30  17.90  11.00  1.985  1.985  0.270  1.715  0.000   96.8    6.7   90.1    0.0
 1990 262    78  13.80  17.70  10.00  2.902  2.902  0.449  2.454  0.000   99.8    7.2   92.6    0.0
 1990 263    79   6.40  17.90  13.30  1.386  1.386  0.243  1.143  0.000  101.1    7.4   93.7    0.0
 1990 264    80   6.40  20.50  15.80  1.461  1.264  0.281  0.983  0.000  102.4    7.7   94.7    0.0
 1990 265    81  20.10  18.60   9.20  4.213  4.103  0.886  3.217  0.000  106.5    8.6   97.9    0.0
 1990 266    82  18.60  13.50   5.40  3.479  2.259  0.812  1.446  0.000  108.8    9.4   99.4    0.0
 1990 267    83  22.30  15.00   3.20  4.172  2.098  0.988  1.111  0.000  110.9   10.4  100.5    0.0
 1990 268    84  23.20  16.30   3.10  4.428  1.946  1.009  0.937  0.000  112.8   11.4  101.4    0.0
 1990 269    85  23.40  20.50   5.10  4.842  1.894  1.068  0.826  0.000  114.7   12.5  102.2    0.0
 1990 270    86  21.30  24.00   8.90  4.761  1.893  1.147  0.746  0.000  116.6   13.6  103.0    0.0
 1990 271    87   6.80  21.70  12.20  1.510  1.101  0.415  0.687  0.000  117.7   14.0  103.7    0.0
 1990 272    88  19.30  22.00  11.30  4.251  1.927  1.288  0.639  0.000  119.6   15.3  104.3    0.0
 1990 273    89  19.30  25.20   8.90  4.320  2.036  1.436  0.600  0.000  121.7   16.7  104.9    0.0
 1990 274    90  21.70  28.10  12.90  5.173  2.446  1.878  0.568  0.000  124.1   18.6  105.5    0.0
 1990 275    91  24.20  24.00  11.90  5.411  2.734  2.194  0.540  0.000  126.8   20.8  106.0    0.0
 1990 276    92  21.80  26.60  13.30  5.059  2.761  2.245  0.516  0.000  129.6   23.1  106.5    0.0
 1990 277    93  17.90  30.10  17.50  4.438  2.654  2.159  0.495  0.000  132.3   25.2  107.0    0.0
 1990 278    94   7.10  19.10  17.30  1.531  1.300  0.824  0.476  0.000  133.6   26.0  107.5    0.0
 1990 279    95   9.40  22.70  17.20  2.109  2.109  1.191  0.918  0.000  135.7   27.2  108.4    0.0
 1990 280    96   7.20  21.60  17.70  1.592  1.592  0.951  0.641  0.000  137.3   28.2  109.1    0.0
 1990 281    97  11.50  20.40  13.70  2.415  2.415  1.499  0.916  0.000  139.7   29.7  110.0    0.0
 1990 282    98  23.40  22.30   9.50  4.842  4.842  3.101  1.741  0.000  144.5   32.8  111.7    0.0
 1990 283    99  21.00  22.30  11.30  4.401  4.401  2.898  1.503  0.000  148.9   35.7  113.2    0.0
 1990 284   100   9.00  22.10  14.50  1.927  1.927  1.306  0.621  0.000  150.8   37.0  113.9    0.0
 1990 285   101  25.50  19.40  11.30  5.116  5.116  3.574  1.542  0.000  156.0   40.6  115.4    0.0
 1990 286   102  26.10  21.60   7.60  5.207  5.207  3.710  1.497  0.000  161.2   44.3  116.9    0.0
 1990 287   103  24.80  22.60  11.50  5.176  5.176  3.749  1.426  0.000  166.3   48.0  118.3    0.0
 1990 288   104  25.50  20.10   8.90  5.024  5.024  3.718  1.306  0.000  171.4   51.7  119.6    0.0
 1990 289   105  26.40  20.50   5.00  5.039  4.628  3.782  0.846  0.000  176.0   55.5  120.5    0.0
 1990 290   106  15.20  21.40   8.90  3.040  3.040  2.298  0.742  0.000  179.0   57.8  121.2    0.0
 1990 291   107  24.50  24.40  14.30  5.318  5.318  4.078  1.240  0.000  184.3   61.9  122.4    0.0
 1990 292   108  17.30  24.00  15.30  3.758  3.758  2.945  0.814  0.000  188.1   64.8  123.3    0.0
 1990 293   109  16.40  23.70  15.70  3.553  3.553  2.840  0.713  0.000  191.7   67.7  124.0    0.0
 1990 294   110  22.20  24.00  14.20  4.759  4.759  3.874  0.885  0.000  196.4   71.6  124.9    0.0
 1990 295   111  27.10  24.80  13.10  5.803  5.803  4.798  1.005  0.000  202.2   76.4  125.9    0.0
 1990 296   112  21.10  25.60  13.10  4.555  4.555  3.820  0.735  0.000  206.8   80.2  126.6    0.0
 1990 297   113  20.80  22.20  13.80  4.324  4.324  3.675  0.649  0.000  211.1   83.9  127.3    0.0
 1990 298   114  14.30  24.70  11.80  3.012  3.012  2.588  0.424  0.000  214.1   86.4  127.7    0.0
 1990 299   115  25.10  27.10  16.30  5.630  5.630  4.912  0.718  0.000  219.7   91.4  128.4    0.0
 1990 300   116  19.60  28.30  17.00  4.471  4.471  3.969  0.502  0.000  224.2   95.3  128.9    0.0
 1990 301   117   8.80  23.80  18.50  1.925  1.925  1.727  0.198  0.000  226.1   97.0  129.1    0.0
 1990 302   118  12.20  27.40  20.40  2.822  2.822  2.540  0.281  0.000  229.0   99.6  129.4    0.0
 1990 303   119  26.40  28.80  17.90  6.084  6.084  5.502  0.582  0.000  235.0  105.1  130.0    0.0
 1990 304   120  26.50  23.20  15.80  5.622  5.622  5.120  0.502  0.000  240.7  110.2  130.5    0.0
 1990 305   121  23.10  24.10  16.70  4.988  4.988  4.562  0.426  0.000  245.7  114.8  130.9    0.0
 1990 306   122  20.10  27.00  14.30  4.405  4.405  4.045  0.360  0.000  250.1  118.8  131.2    0.0
 1990 307   123  11.80  28.10  20.80  2.751  2.751  2.535  0.216  0.000  252.8  121.4  131.5    0.0
 1990 308   124  21.00  22.20  10.80  4.213  4.213  3.891  0.322  0.000  257.0  125.2  131.8    0.0
 1990 309   125  28.80  19.00   6.40  5.321  5.321  4.922  0.399  0.000  262.3  130.2  132.2    0.0
 1990 310   126  17.40  21.20   9.80  3.415  3.415  3.160  0.255  0.000  265.8  133.3  132.4    0.0
 1990 311   127  23.40  23.50  13.50  4.880  4.880  4.520  0.359  0.000  270.6  137.8  132.8    0.0
 1990 312   128   8.40  18.40  11.30  1.609  1.609  1.493  0.116  0.000  272.2  139.3  132.9    0.0
 1990 313   129  16.20  22.30  15.10  3.371  3.371  3.132  0.240  0.000  275.6  142.5  133.2    0.0
 1990 314   130  21.20  24.80  13.70  4.497  4.497  4.184  0.313  0.000  280.1  146.7  133.5    0.0
 1990 315   131  23.60  27.00  15.30  5.203  5.203  4.850  0.353  0.000  285.3  151.5  133.8    0.0
 1990 316   132  12.20  24.60  14.20  2.591  2.591  2.420  0.171  0.000  287.9  153.9  134.0    0.0
 1990 317   133  26.70  34.90  18.50  6.575  6.575  6.150  0.425  0.000  294.5  160.1  134.4    0.0
 1990 318   134  15.90  33.00  20.80  3.901  3.901  3.645  0.256  0.000  298.4  163.7  134.7    0.0
 1990 319   135   8.60  23.20  17.30  1.841  1.841  1.718  0.123  0.000  300.2  165.4  134.8    0.0
 1990 320   136  17.60  22.10  12.20  3.564  3.564  3.324  0.240  0.000  303.8  168.8  135.0    0.0
 1990 321   137  28.70  26.10   9.30  5.966  5.966  5.559  0.406  0.000  309.8  174.3  135.4    0.0
 1990 322   138  27.80  29.70  16.50  6.381  6.381  5.942  0.439  0.000  316.1  180.3  135.9    0.0
 1990 323   139  27.10  33.40  21.80  6.726  6.726  6.260  0.466  0.000  322.9  186.5  136.3    0.0
 1990 324   140  12.20  28.00  21.10  2.844  2.844  2.645  0.199  0.000  325.7  189.2  136.5    0.0
 1990 325   141  30.70  28.70  18.80  7.090  7.090  6.591  0.499  0.000  332.8  195.8  137.0    0.0
 1990 326   142  28.10  28.00  15.30  6.271  6.271  5.826  0.445  0.000  339.1  201.6  137.5    0.0
 1990 327   143  29.80  28.20  14.20  6.609  6.609  6.137  0.472  0.000  345.7  207.7  138.0    0.0
 1990 328   144  25.60  28.70  16.80  5.826  5.826  5.407  0.419  0.000  351.5  213.1  138.4    0.0
 1990 329   145  20.10  29.20  18.20  4.649  4.649  4.312  0.337  0.000  356.2  217.4  138.7    0.0
 1990 330   146  22.90  24.90  15.80  4.948  4.948  4.589  0.358  0.000  361.1  222.0  139.1    0.0
 1990 331   147  30.40  21.20  10.00  5.975  5.975  5.542  0.433  0.000  367.1  227.6  139.5    0.0
 1990 332   148  30.90  24.60   9.00  6.291  6.291  5.835  0.456  0.000  373.4  233.4  140.0    0.0
 1990 333   149  31.00  27.10  12.20  6.682  6.682  6.198  0.484  0.000  380.0  239.6  140.4    0.0
 1990 334   150  14.90  26.80  14.90  3.269  3.269  3.032  0.237  0.000  383.3  242.6  140.7    0.0
 1990 335   151  23.40  26.40  14.70  5.102  5.102  4.732  0.370  0.000  388.4  247.4  141.1    0.0
 1990 336   152   9.00  23.50  14.10  1.886  1.886  1.749  0.137  0.000  390.3  249.1  141.2    0.0
 1990 337   153  30.10  22.90  11.40  6.121  6.121  5.676  0.445  0.000  396.4  254.8  141.6    0.0
 1990 338   154  28.70  27.90  10.60  6.167  6.167  5.716  0.451  0.000  402.6  260.5  142.1    0.0
 1990 339   155  16.80  32.30  20.30  4.081  4.081  3.781  0.300  0.000  406.7  264.3  142.4    0.0
 1990 340   156  16.80  25.60  17.50  3.710  3.710  3.435  0.275  0.000  410.4  267.7  142.7    0.0
 1990 341   157  26.90  25.20  16.00  5.844  5.844  5.406  0.438  0.000  416.2  273.1  143.1    0.0
 1990 342   158  30.30  25.00  12.00  6.360  6.360  5.876  0.484  0.000  422.6  279.0  143.6    0.0
 1990 343   159   9.00  19.70  14.20  1.800  1.800  1.661  0.139  0.000  424.4  280.7  143.7    0.0
 1990 344   160   9.10  19.50  15.90  1.843  1.843  1.697  0.146  0.000  426.2  282.4  143.9    0.0
 1990 345   161  24.70  25.00  14.70  5.302  5.302  4.875  0.428  0.000  431.5  287.2  144.3    0.0
 1990 346   162  14.70  22.00  10.50  2.936  2.936  2.694  0.242  0.000  434.5  289.9  144.5    0.0
 1990 347   163  19.00  24.00  14.30  4.019  4.019  3.678  0.340  0.000  438.5  293.6  144.9    0.0
 1990 348   164  29.20  21.90  10.30  5.818  5.818  5.312  0.506  0.000  444.3  298.9  145.4    0.0
 1990 349   165  31.80  27.30  10.90  6.815  6.815  6.205  0.610  0.000  451.1  305.1  146.0    0.0
 1990 350   166  28.70  30.20  13.70  6.507  6.507  5.907  0.600  0.000  457.6  311.0  146.6    0.0
 1990 351   167  14.40  30.10  18.00  3.369  3.369  3.049  0.320  0.000  461.0  314.1  146.9    0.0
 1990 352   168  27.40  25.60  17.30  6.061  6.061  5.466  0.595  0.000  467.1  319.6  147.5    0.0
 1990 353   169  31.40  25.60  14.40  6.793  6.793  6.101  0.692  0.000  473.9  325.7  148.2    0.0
 1990 354   170  31.60  27.10  14.00  6.941  6.941  6.206  0.735  0.000  480.8  331.9  148.9    0.0
 1990 355   171  25.60  29.80  15.90  5.889  5.889  5.240  0.650  0.000  486.7  337.1  149.6    0.0
 1990 356   172  10.00  25.70  19.00  2.249  2.249  1.990  0.259  0.000  488.9  339.1  149.8    0.0
 1990 357   173  19.50  28.40  17.80  4.486  4.486  3.946  0.540  0.000  493.4  343.0  150.4    0.0
 1990 358   174  13.10  24.40  15.50  2.828  2.828  2.471  0.357  0.000  496.2  345.5  150.7    0.0
 1990 359   175  29.40  25.70  12.70  6.308  6.308  5.473  0.835  0.000  502.6  351.0  151.6    0.0
 1990 360   176  31.40  31.30  15.30  7.343  7.343  6.321  1.022  0.000  509.9  357.3  152.6    0.0
 1990 361   177  31.40  31.50  18.00  7.514  7.514  6.415  1.100  0.000  517.4  363.7  153.7    0.0
 1990 362   178  31.40  21.00  13.30  6.406  6.406  5.418  0.988  0.000  523.8  369.1  154.7    0.0
 1990 363   179  29.60  23.30   9.40  6.023  6.023  5.042  0.981  0.000  529.8  374.2  155.7    0.0
 1990 364   180  30.80  27.20  11.40  6.697  6.523  5.546  0.977  0.000  536.4  379.7  156.6    0.0
 1990 365   181  31.50  29.40  14.80  7.226  7.226  5.918  1.309  0.000  543.6  385.6  158.0    0.0
 1991 001   182  24.30  31.60  17.10  5.820  5.820  4.710  1.110  0.000  549.4  390.3  159.1    0.0
 1991 002   183  24.10  29.20  20.30  5.764  5.764  4.605  1.159  0.000  555.2  395.0  160.2    0.0
 1991 003   184  26.70  29.10  17.40  6.253  6.253  4.927  1.326  0.000  561.4  399.9  161.5    0.0
 1991 004   185  31.30  28.60  13.40  7.082  6.572  5.498  1.074  0.000  568.0  405.4  162.6    0.0
 1991 005   186  31.30  28.20  13.80  7.084  6.326  5.412  0.915  0.000  574.3  410.8  163.5    0.0
 1991 006   187  31.30  30.20  13.00  7.219  6.232  5.422  0.810  0.000  580.6  416.2  164.3    0.0
 1991 007   188  29.60  32.40  17.10  7.227  6.065  5.330  0.735  0.000  586.6  421.5  165.1    0.0
 1991 008   189  29.90  34.30  19.30  7.567  6.259  5.581  0.678  0.000  592.9  427.1  165.8    0.0
 1991 009   190   9.90  24.30  21.30  2.278  2.278  1.680  0.598  0.000  595.2  428.8  166.4    0.0

*DSSAT Cropping System Model Ver. 4.0.2.000               Jul 19, 2016; 16:47:46

*RUN   2        : UYMZ                    
 MODEL          : MZCER040 - Maize           
 EXPERIMENT     : UYMZ0043 MZ    late to create DSS                             
 TREATMENT  1   : UYMZ                    

@YEAR DOY   DAS   SRAA   TMXA   TMNA   EOAA   ETAA   EPAA   ESAA   EFAD   ETAC   EPAC   ESAC   EFAC
 1991 184     0  12.70   8.30   5.30  2.263  1.545  0.000  1.545  0.000    1.5    0.0    1.5    0.0
 1991 185     1   8.50   9.00   0.20  1.446  1.153  0.000  1.153  0.000    2.7    0.0    2.7    0.0
 1991 186     2   9.30  13.20  -1.60  1.665  0.961  0.000  0.961  0.000    3.7    0.0    3.7    0.0
 1991 187     3  10.70  15.90   6.50  2.172  0.842  0.000  0.842  0.000    4.5    0.0    4.5    0.0
 1991 188     4  10.70  17.20   4.00  2.161  0.759  0.000  0.759  0.000    5.3    0.0    5.3    0.0
 1991 189     5   5.00  18.00   6.90  1.050  0.696  0.000  0.696  0.000    6.0    0.0    6.0    0.0
 1991 190     6   6.60  23.80  11.10  1.554  0.647  0.000  0.647  0.000    6.6    0.0    6.6    0.0
 1991 191     7   7.30  12.70   5.20  1.394  1.394  0.000  1.394  0.000    8.0    0.0    8.0    0.0
 1991 192     8   7.30   9.90   2.10  1.289  1.289  0.000  1.289  0.000    9.3    0.0    9.3    0.0
 1991 193     9   6.40   8.10   1.00  1.082  1.082  0.000  1.082  0.000   10.4    0.0   10.4    0.0
 1991 194    10  11.80   8.20  -1.10  1.950  1.346  0.000  1.346  0.000   11.7    0.0   11.7    0.0
 1991 195    11  11.40  10.00  -1.70  1.931  1.931  0.000  1.931  0.000   13.6    0.0   13.6    0.0
 1991 196    12  12.40  12.60  -2.10  2.186  1.669  0.000  1.669  0.000   15.3    0.0   15.3    0.0
 1991 197    13   8.10  16.00   5.80  1.636  1.200  0.000  1.200  0.000   16.5    0.0   16.5    0.0
 1991 198    14   8.40  22.00   9.90  1.913  0.988  0.000  0.988  0.000   17.5    0.0   17.5    0.0
 1991 199    15   3.90  16.90   8.70  0.820  0.820  0.000  0.820  0.000   18.3    0.0   18.3    0.0
 1991 200    16  10.60  15.00   5.60  2.105  2.105  0.000  2.105  0.000   20.4    0.0   20.4    0.0
 1991 201    17   9.40  24.20  12.80  2.256  2.256  0.000  2.256  0.000   22.7    0.0   22.7    0.0
 1991 202    18   4.00  12.80   8.00  0.787  0.787  0.000  0.787  0.000   23.5    0.0   23.5    0.0
 1991 203    19   4.00   8.40   6.60  0.724  0.724  0.000  0.724  0.000   24.2    0.0   24.2    0.0
 1991 204    20   8.20  10.20   4.80  1.499  1.499  0.000  1.499  0.000   25.7    0.0   25.7    0.0
 1991 205    21  14.00  15.90   2.30  2.726  2.726  0.000  2.726  0.000   28.4    0.0   28.4    0.0
 1991 206    22  14.10  16.80   2.80  2.797  2.388  0.000  2.388  0.000   30.8    0.0   30.8    0.0
 1991 207    23  14.30  24.00   9.10  3.320  2.940  0.000  2.940  0.000   33.7    0.0   33.7    0.0
 1991 208    24  14.40  27.10  10.20  3.506  1.434  0.000  1.434  0.000   35.2    0.0   35.2    0.0
 1991 209    25  13.80  26.30  14.20  3.436  1.106  0.000  1.106  0.000   36.3    0.0   36.3    0.0
 1991 210    26  11.00  25.20  16.10  2.744  0.940  0.006  0.934  0.000   37.2    0.0   37.2    0.0
 1991 211    27   4.20  20.20   8.80  0.925  0.828  0.004  0.823  0.000   38.1    0.0   38.0    0.0
 1991 212    28  11.30  15.40   5.60  2.255  2.255  0.013  2.243  0.000   40.3    0.0   40.3    0.0
 1991 213    29  15.40   6.50   0.50  2.513  2.513  0.015  2.498  0.000   42.8    0.0   42.8    0.0
 1991 214    30  13.80   9.60  -1.80  2.317  1.898  0.010  1.888  0.000   44.7    0.0   44.7    0.0
 1991 215    31  14.00  11.90  -0.90  2.471  2.471  0.004  2.467  0.000   47.2    0.1   47.1    0.0
 1991 216    32   4.40  10.90   4.00  0.806  0.806  0.001  0.806  0.000   48.0    0.1   47.9    0.0
 1991 217    33  14.60  15.00   4.30  2.861  2.861  0.003  2.859  0.000   50.9    0.1   50.8    0.0
 1991 218    34   4.50   9.70   1.90  0.790  0.790  0.001  0.789  0.000   51.6    0.1   51.6    0.0
 1991 219    35   7.50  15.40   2.30  1.449  1.449  0.001  1.448  0.000   53.1    0.1   53.0    0.0
 1991 220    36  11.00  16.70   7.50  2.281  1.409  0.002  1.406  0.000   54.5    0.1   54.4    0.0
 1991 221    37   5.10  15.70  10.40  1.071  1.071  0.002  1.069  0.000   55.6    0.1   55.5    0.0
 1991 222    38   4.80  11.90   8.10  0.932  0.932  0.003  0.930  0.000   56.5    0.1   56.4    0.0
 1991 223    39   7.80  13.10   5.60  1.504  1.504  0.005  1.499  0.000   58.0    0.1   57.9    0.0
 1991 224    40  12.50  15.80   1.50  2.409  1.148  0.009  1.139  0.000   59.2    0.1   59.1    0.0
 1991 225    41  11.60  18.50   7.30  2.461  0.962  0.008  0.954  0.000   60.1    0.1   60.0    0.0
 1991 226    42  15.20  25.70  10.80  3.654  0.853  0.016  0.837  0.000   61.0    0.1   60.9    0.0
 1991 227    43  10.70  25.30  15.40  2.655  0.773  0.018  0.755  0.000   61.8    0.1   61.6    0.0
 1991 228    44  12.60  27.30  14.40  3.172  0.746  0.053  0.693  0.000   62.5    0.2   62.3    0.0
 1991 229    45  16.10  24.70  11.80  3.840  0.755  0.110  0.644  0.000   63.3    0.3   63.0    0.0
 1991 230    46   9.30  23.80  13.60  2.223  0.692  0.088  0.605  0.000   63.9    0.4   63.6    0.0
 1991 231    47  12.70  26.00  10.90  3.045  0.727  0.155  0.571  0.000   64.7    0.5   64.1    0.0
 1991 232    48   9.30  26.00  11.80  2.242  0.686  0.143  0.543  0.000   65.4    0.7   64.7    0.0
 1991 233    49  14.70  26.00  11.60  3.531  0.792  0.274  0.519  0.000   66.1    0.9   65.2    0.0
 1991 234    50  13.80  26.40  14.60  3.404  0.813  0.315  0.497  0.000   67.0    1.3   65.7    0.0
 1991 235    51  16.70  21.60  14.50  3.871  0.908  0.430  0.478  0.000   67.9    1.7   66.2    0.0
 1991 236    52  16.20  20.70   9.90  3.560  0.913  0.452  0.461  0.000   68.8    2.1   66.6    0.0
 1991 237    53  14.10  24.70  11.10  3.289  0.904  0.458  0.446  0.000   69.7    2.6   67.1    0.0
 1991 238    54   5.40  16.90  11.90  1.143  0.612  0.179  0.432  0.000   70.3    2.8   67.5    0.0
 1991 239    55   5.30  16.20  10.20  1.092  1.092  0.183  0.908  0.000   71.4    3.0   68.4    0.0
 1991 240    56  10.80  21.40  12.10  2.423  0.882  0.429  0.453  0.000   72.3    3.4   68.9    0.0
 1991 241    57  10.70  22.80  14.40  2.484  0.920  0.481  0.439  0.000   73.2    3.9   69.3    0.0
 1991 242    58   7.30  24.20  16.00  1.741  0.799  0.374  0.425  0.000   74.0    4.2   69.7    0.0
 1991 243    59   5.50  16.80  11.00  1.138  1.138  0.272  0.866  0.000   75.1    4.5   70.6    0.0
 1991 244    60   9.40  16.10   8.10  1.872  1.872  0.469  1.402  0.000   77.0    5.0   72.0    0.0
 1991 245    61   5.50  17.90  11.20  1.154  0.982  0.299  0.682  0.000   78.0    5.3   72.7    0.0
 1991 246    62  10.50  22.80  14.00  2.401  2.401  0.655  1.746  0.000   80.4    5.9   74.4    0.0
 1991 247    63  18.10  25.80  13.20  4.251  3.284  1.256  2.029  0.000   83.7    7.2   76.5    0.0
 1991 248    64  18.40  27.20  13.90  4.401  2.726  1.419  1.307  0.000   86.4    8.6   77.8    0.0
 1991 249    65   5.70  22.50  16.00  1.303  1.303  0.466  0.837  0.000   87.7    9.1   78.6    0.0
 1991 250    66   5.80  17.20  12.80  1.201  1.201  0.456  0.745  0.000   88.9    9.5   79.4    0.0
 1991 251    67   6.40  17.10  10.50  1.293  1.253  0.515  0.738  0.000   90.2   10.1   80.1    0.0
 1991 252    68  15.60  20.00   8.40  3.208  3.208  1.329  1.880  0.000   93.4   11.4   82.0    0.0
 1991 253    69  17.50  22.00  10.20  3.747  3.669  1.607  2.062  0.000   97.0   13.0   84.0    0.0
 1991 254    70  20.20  25.00  10.80  4.500  3.346  2.032  1.315  0.000  100.4   15.0   85.4    0.0
 1991 255    71  19.90  27.80  14.10  4.688  3.298  2.250  1.049  0.000  103.7   17.3   86.4    0.0
 1991 256    72  15.40  30.70  16.10  3.788  2.843  1.944  0.899  0.000  106.5   19.2   87.3    0.0
 1991 257    73   6.10  21.00   7.80  1.239  1.239  0.684  0.554  0.000  107.8   19.9   87.9    0.0
 1991 258    74   6.20  12.30   8.20  1.114  1.114  0.632  0.482  0.000  108.9   20.5   88.3    0.0
 1991 259    75  11.50  23.50  12.40  2.502  2.502  1.434  1.067  0.000  111.4   22.0   89.4    0.0
 1991 260    76   6.30  21.10  17.10  1.377  1.377  0.827  0.550  0.000  112.7   22.8   90.0    0.0
 1991 261    77  18.90  19.70  13.10  3.910  3.910  2.441  1.469  0.000  116.7   25.2   91.4    0.0
 1991 262    78  21.70  17.30   8.80  4.170  4.170  2.681  1.489  0.000  120.8   27.9   92.9    0.0
 1991 263    79  13.10  22.60   8.30  2.688  2.688  1.756  0.932  0.000  123.5   29.7   93.8    0.0
 1991 264    80  11.00  27.50  12.60  2.480  2.480  1.661  0.820  0.000  126.0   31.3   94.7    0.0
 1991 265    81  20.40  20.30  10.30  4.107  4.107  2.854  1.254  0.000  130.1   34.2   95.9    0.0
 1991 266    82  21.60  16.90   3.20  3.873  3.436  2.745  0.691  0.000  133.5   36.9   96.6    0.0
 1991 267    83  22.30  19.00   4.90  4.204  4.204  2.883  1.321  0.000  137.7   39.8   97.9    0.0
 1991 268    84  20.30  21.10   8.70  4.075  4.075  2.817  1.258  0.000  141.8   42.6   99.2    0.0
 1991 269    85  21.70  23.40   7.80  4.446  4.446  3.132  1.314  0.000  146.3   45.8  100.5    0.0
 1991 270    86  17.70  27.80  13.80  4.014  4.014  2.884  1.129  0.000  150.3   48.6  101.6    0.0
 1991 271    87  22.20  16.10   9.00  4.141  4.063  3.070  0.992  0.000  154.3   51.7  102.6    0.0
 1991 272    88  21.80  18.00   7.50  4.114  3.942  3.079  0.863  0.000  158.3   54.8  103.5    0.0
 1991 273    89  21.10  20.20   9.70  4.183  3.934  3.160  0.774  0.000  162.2   58.0  104.3    0.0
 1991 274    90  19.70  18.40   7.00  3.712  3.551  2.844  0.707  0.000  165.8   60.8  105.0    0.0
 1991 275    91  22.00  18.40   5.70  4.091  3.817  3.162  0.656  0.000  169.6   64.0  105.6    0.0
 1991 276    92  23.00  19.80   3.80  4.281  3.948  3.334  0.614  0.000  173.5   67.3  106.2    0.0
 1991 277    93  19.10  21.70   6.30  3.740  3.456  2.877  0.579  0.000  177.0   70.2  106.8    0.0
 1991 278    94   7.10  13.60  10.60  1.291  1.291  1.004  0.286  0.000  178.3   71.2  107.1    0.0
 1991 279    95  13.30  12.50   7.00  2.293  2.293  1.796  0.497  0.000  180.6   73.0  107.6    0.0
 1991 280    96  14.80  14.20   4.00  2.539  2.539  1.994  0.545  0.000  183.1   75.0  108.1    0.0
 1991 281    97  23.60  16.90   3.90  4.219  4.219  3.269  0.950  0.000  187.3   78.2  109.1    0.0
 1991 282    98  20.30  20.90   7.30  3.970  3.970  3.037  0.933  0.000  191.3   81.3  110.0    0.0
 1991 283    99  24.30  23.10   7.20  4.883  4.883  3.778  1.105  0.000  196.2   85.1  111.1    0.0
 1991 284   100  24.30  25.00   8.70  5.061  5.061  3.967  1.094  0.000  201.2   89.0  112.2    0.0
 1991 285   101  24.40  29.20  12.20  5.492  5.492  4.370  1.122  0.000  206.7   93.4  113.4    0.0
 1991 286   102  21.90  33.00  20.00  5.435  5.126  4.413  0.713  0.000  211.9   97.8  114.1    0.0
 1991 287   103  11.80  32.00  21.10  2.911  2.911  2.427  0.484  0.000  214.8  100.2  114.5    0.0
 1991 288   104   7.50  23.50  17.60  1.635  1.635  1.381  0.255  0.000  216.4  101.6  114.8    0.0
 1991 289   105   7.60  17.80  11.60  1.464  1.464  1.243  0.220  0.000  217.9  102.9  115.0    0.0
 1991 290   106  15.50  16.00   8.40  2.824  2.824  2.413  0.412  0.000  220.7  105.3  115.4    0.0
 1991 291   107  26.30  21.50   8.40  5.168  5.168  4.424  0.744  0.000  225.9  109.7  116.2    0.0
 1991 292   108  26.30  24.60  11.00  5.496  5.496  4.728  0.768  0.000  231.4  114.4  116.9    0.0
 1991 293   109  26.30  24.90  12.50  5.567  5.567  4.917  0.650  0.000  236.9  119.3  117.6    0.0
 1991 294   110  24.40  29.60  14.20  5.526  5.526  4.940  0.586  0.000  242.5  124.3  118.2    0.0
 1991 295   111  20.20  29.90  19.80  4.781  4.781  4.312  0.469  0.000  247.2  128.6  118.7    0.0
 1991 296   112   8.30  19.10  12.60  1.628  1.628  1.477  0.150  0.000  248.9  130.1  118.8    0.0
 1991 297   113   7.90  17.40  10.20  1.482  1.482  1.345  0.137  0.000  250.3  131.4  118.9    0.0
 1991 298   114   7.90  21.30  15.40  1.633  1.633  1.481  0.152  0.000  252.0  132.9  119.1    0.0
 1991 299   115  22.70  24.90  16.30  4.938  4.938  4.476  0.462  0.000  256.9  137.4  119.6    0.0
 1991 300   116  12.20  23.30  14.70  2.569  2.569  2.332  0.237  0.000  259.5  139.7  119.8    0.0
 1991 301   117   8.00  20.10  14.90  1.621  1.621  1.472  0.149  0.000  261.1  141.2  119.9    0.0
 1991 302   118   8.00  16.80  15.20  1.557  1.557  1.412  0.145  0.000  262.7  142.6  120.1    0.0
 1991 303   119   8.10  18.00  14.60  1.594  1.594  1.444  0.150  0.000  264.3  144.0  120.2    0.0
 1991 304   120   8.10  20.70  14.60  1.651  1.651  1.493  0.157  0.000  265.9  145.5  120.4    0.0
 1991 305   121  17.90  22.30  13.70  3.695  3.695  3.338  0.356  0.000  269.6  148.9  120.7    0.0
 1991 306   122  25.50  22.30  12.20  5.198  5.198  4.694  0.505  0.000  274.8  153.6  121.3    0.0
 1991 307   123  20.80  22.80  12.80  4.289  4.289  3.869  0.420  0.000  279.1  157.4  121.7    0.0
 1991 308   124  27.90  25.00  11.90  5.869  5.869  5.290  0.579  0.000  285.0  162.7  122.3    0.0
 1991 309   125  20.90  25.90  13.20  4.492  4.492  4.047  0.446  0.000  289.5  166.8  122.7    0.0
 1991 310   126  11.60  24.30  16.20  2.506  2.506  2.256  0.249  0.000  292.0  169.0  122.9    0.0
 1991 311   127  21.40  22.80  13.70  4.447  4.447  4.003  0.444  0.000  296.4  173.0  123.4    0.0
 1991 312   128  20.00  21.40  12.40  4.039  4.039  3.632  0.407  0.000  300.4  176.6  123.8    0.0
 1991 313   129  27.20  23.90   9.20  5.520  5.520  4.957  0.563  0.000  306.0  181.6  124.4    0.0
 1991 314   130  17.60  25.70  11.30  3.719  3.719  3.333  0.385  0.000  309.7  184.9  124.7    0.0
 1991 315   131  18.50  19.00  10.10  3.551  3.551  3.170  0.381  0.000  313.2  188.1  125.1    0.0
 1991 316   132  27.30  19.00   6.40  5.069  5.069  4.504  0.564  0.000  318.3  192.6  125.7    0.0
 1991 317   133  18.50  21.00   8.40  3.596  3.596  3.185  0.411  0.000  321.9  195.8  126.1    0.0
 1991 318   134   8.50  19.90  12.10  1.683  1.683  1.486  0.198  0.000  323.6  197.3  126.3    0.0
 1991 319   135  11.90  22.20  14.00  2.468  2.468  2.171  0.297  0.000  326.1  199.5  126.6    0.0
 1991 320   136  19.50  23.20  12.10  4.032  4.032  3.535  0.496  0.000  330.1  203.0  127.1    0.0
 1991 321   137  21.50  23.00  11.30  4.406  4.406  3.852  0.554  0.000  334.5  206.8  127.6    0.0
 1991 322   138  23.70  27.00  13.30  5.187  5.187  4.521  0.665  0.000  339.7  211.4  128.3    0.0
 1991 323   139  29.90  21.30  13.80  6.129  5.962  5.328  0.634  0.000  345.6  216.7  128.9    0.0
 1991 324   140  24.60  24.40  13.00  5.208  5.208  4.516  0.692  0.000  350.8  221.2  129.6    0.0
 1991 325   141  29.40  28.60  12.50  6.522  6.522  5.641  0.881  0.000  357.4  226.8  130.5    0.0
 1991 326   142  28.60  33.30  13.80  6.761  6.761  5.834  0.927  0.000  364.1  232.7  131.4    0.0
 1991 327   143  24.90  35.20  18.50  6.270  6.270  5.399  0.871  0.000  370.4  238.1  132.3    0.0
 1991 328   144   8.80  19.10  13.80  1.756  1.756  1.509  0.247  0.000  372.2  239.6  132.6    0.0
 1991 329   145   8.80  18.80  14.20  1.756  1.756  1.506  0.250  0.000  373.9  241.1  132.8    0.0
 1991 330   146  14.10  20.20  12.60  2.826  2.826  2.419  0.406  0.000  376.7  243.5  133.2    0.0
 1991 331   147  22.40  24.20  10.70  4.649  4.649  3.974  0.675  0.000  381.4  247.5  133.9    0.0
 1991 332   148  22.30  29.00  14.90  5.072  5.072  4.324  0.748  0.000  386.5  251.8  134.6    0.0
 1991 333   149  16.00  25.60  19.00  3.612  3.612  3.071  0.541  0.000  390.1  254.9  135.2    0.0
 1991 334   150  30.00  28.20  17.50  6.901  6.901  5.850  1.051  0.000  397.0  260.7  136.2    0.0
 1991 335   151  24.30  27.80  14.60  5.444  5.444  4.600  0.844  0.000  402.4  265.3  137.1    0.0
 1991 336   152  29.40  30.10  14.90  6.781  6.781  5.711  1.070  0.000  409.2  271.0  138.2    0.0
 1991 337   153  15.40  27.50  18.00  3.532  3.532  2.964  0.568  0.000  412.7  274.0  138.7    0.0
 1991 338   154  29.90  31.50  16.10  7.074  7.074  5.913  1.161  0.000  419.8  279.9  139.9    0.0
 1991 339   155  14.60  27.30  18.30  3.352  3.352  2.790  0.561  0.000  423.2  282.7  140.4    0.0
 1991 340   156  29.40  31.80  18.90  7.130  7.130  5.909  1.220  0.000  430.3  288.6  141.7    0.0
 1991 341   157  16.80  27.80  19.00  3.903  3.903  3.221  0.683  0.000  434.2  291.8  142.3    0.0
 1991 342   158  28.30  29.80  17.70  6.663  6.663  5.470  1.193  0.000  440.9  297.3  143.5    0.0
 1991 343   159   9.00  22.80  18.90  1.974  1.974  1.612  0.362  0.000  442.8  298.9  143.9    0.0
 1991 344   160  24.70  27.00  18.80  5.689  5.689  4.620  1.069  0.000  448.5  303.5  145.0    0.0
 1991 345   161  19.50  27.60  17.30  4.474  4.474  3.612  0.862  0.000  453.0  307.2  145.8    0.0
 1991 346   162   9.40  23.80  16.60  2.053  2.053  1.647  0.406  0.000  455.0  308.8  146.2    0.0
 1991 347   163  29.90  28.40  15.10  6.818  6.818  5.433  1.385  0.000  461.9  314.2  147.6    0.0
 1991 348   164   9.40  21.90  16.70  2.011  2.011  1.591  0.420  0.000  463.9  315.8  148.0    0.0
 1991 349   165   9.10  23.50  16.70  1.987  1.987  1.560  0.427  0.000  465.9  317.4  148.5    0.0
 1991 350   166  20.20  26.90  17.10  4.610  4.610  3.590  1.020  0.000  470.5  321.0  149.5    0.0
 1991 351   167  27.60  27.80  17.90  6.409  6.409  4.948  1.460  0.000  476.9  325.9  150.9    0.0
 1991 352   168  26.20  31.10  17.80  6.313  6.313  4.832  1.482  0.000  483.2  330.8  152.4    0.0
 1991 353   169  21.60  31.20  17.50  5.205  5.205  3.945  1.260  0.000  488.4  334.7  153.7    0.0
 1991 354   170  28.80  31.00  18.00  6.958  6.958  5.220  1.738  0.000  495.4  339.9  155.4    0.0
 1991 355   171  23.90  32.40  19.90  5.950  5.950  4.415  1.535  0.000  501.3  344.3  157.0    0.0
 1991 356   172  11.20  27.10  20.30  2.642  2.642  1.938  0.704  0.000  503.9  346.3  157.7    0.0
 1991 357   173  23.80  30.00  19.50  5.772  5.772  4.182  1.590  0.000  509.7  350.5  159.3    0.0
 1991 358   174  27.30  30.80  20.60  6.741  6.741  4.821  1.920  0.000  516.5  355.3  161.2    0.0
 1991 359   175  21.00  25.60  17.40  4.782  4.782  3.375  1.407  0.000  521.2  358.7  162.6    0.0
 1991 360   176  23.90  22.70  13.40  5.096  5.096  3.545  1.551  0.000  526.3  362.2  164.1    0.0
 1991 361   177  29.90  25.20  12.40  6.532  6.532  4.474  2.058  0.000  532.9  366.7  166.2    0.0
 1991 362   178  28.80  26.60  14.90  6.538  6.538  4.408  2.130  0.000  539.4  371.1  168.3    0.0
 1991 363   179  30.80  29.30  14.60  7.210  6.343  4.782  1.561  0.000  545.7  375.9  169.9    0.0
 1991 364   180  23.60  30.40  17.40  5.722  5.722  3.731  1.991  0.000  551.5  379.6  171.9    0.0
 1991 365   181  19.50  33.00  21.10  5.001  4.717  3.203  1.513  0.000  556.2  382.8  173.4    0.0
 1992 001   182  10.80  28.00  20.30  2.614  2.614  1.643  0.971  0.000  558.8  384.4  174.4    0.0
 1992 002   183  19.00  28.60  19.10  4.597  4.597  2.833  1.764  0.000  563.4  387.3  176.1    0.0
 1992 003   184  28.00  23.20  14.20  6.131  6.131  3.702  2.429  0.000  569.5  391.0  178.6    0.0
 1992 004   185  31.30  26.80  14.90  7.198  6.780  4.346  2.434  0.000  576.3  395.3  181.0    0.0
 1992 005   186  30.40  28.90  13.10  7.065  7.065  4.266  2.799  0.000  583.4  399.6  183.8    0.0
 1992 006   187  20.50  27.20  15.70  4.766  4.349  2.878  1.472  0.000  587.7  402.5  185.3    0.0

*DSSAT Cropping System Model Ver. 4.0.2.000               Jul 19, 2016; 16:47:46

*RUN   3        : UYMZ                    
 MODEL          : MZCER040 - Maize           
 EXPERIMENT     : UYMZ0043 MZ    late to create DSS                             
 TREATMENT  1   : UYMZ                    

@YEAR DOY   DAS   SRAA   TMXA   TMNA   EOAA   ETAA   EPAA   ESAA   EFAD   ETAC   EPAC   ESAC   EFAC
 1992 184     0  12.10  13.40   3.90  2.305  2.151  0.000  2.151  0.000    2.2    0.0    2.2    0.0
 1992 185     1  12.10  13.80   1.00  2.250  2.250  0.000  2.250  0.000    4.4    0.0    4.4    0.0
 1992 186     2   3.70  14.00   8.90  0.748  0.748  0.000  0.748  0.000    5.1    0.0    5.1    0.0
 1992 187     3  10.70  11.60   6.10  2.028  1.533  0.000  1.533  0.000    6.7    0.0    6.7    0.0
 1992 188     4  10.20   9.20  -0.50  1.728  1.148  0.000  1.148  0.000    7.8    0.0    7.8    0.0
 1992 189     5  11.40  10.80  -2.00  1.951  0.959  0.000  0.959  0.000    8.8    0.0    8.8    0.0
 1992 190     6  11.30  17.00   2.00  2.231  0.840  0.000  0.840  0.000    9.6    0.0    9.6    0.0
 1992 191     7  11.40  19.50   4.90  2.400  0.757  0.000  0.757  0.000   10.4    0.0   10.4    0.0
 1992 192     8  12.30  23.00   9.50  2.829  0.252  0.000  0.252  0.000   10.6    0.0   10.6    0.0
 1992 193     9  12.30  24.20   9.60  2.875  0.122  0.000  0.122  0.000   10.8    0.0   10.8    0.0
 1992 194    10  12.30  24.60  11.90  2.945  0.118  0.000  0.118  0.000   10.9    0.0   10.9    0.0
 1992 195    11   8.30  25.80  13.80  2.048  0.115  0.000  0.115  0.000   11.0    0.0   11.0    0.0
 1992 196    12   3.90  16.50   4.30  0.782  0.112  0.000  0.112  0.000   11.1    0.0   11.1    0.0
 1992 197    13  11.40   7.10   1.00  1.894  1.894  0.000  1.894  0.000   13.0    0.0   13.0    0.0
 1992 198    14   7.10   6.60  -1.50  1.134  1.134  0.000  1.134  0.000   14.1    0.0   14.1    0.0
 1992 199    15  10.20   9.00  -1.80  1.695  1.695  0.000  1.695  0.000   15.8    0.0   15.8    0.0
 1992 200    16  13.50   6.80   3.40  2.294  2.128  0.000  2.128  0.000   18.0    0.0   18.0    0.0
 1992 201    17   4.00  11.20   2.70  0.726  0.726  0.000  0.726  0.000   18.7    0.0   18.7    0.0
 1992 202    18  12.80  16.30   0.20  2.455  2.455  0.000  2.455  0.000   21.1    0.0   21.1    0.0
 1992 203    19  14.10   9.70   2.30  2.487  1.501  0.000  1.501  0.000   22.6    0.0   22.6    0.0
 1992 204    20  10.40   8.40  -1.50  1.716  1.134  0.000  1.134  0.000   23.8    0.0   23.8    0.0
 1992 205    21  14.60   8.40  -1.30  2.415  0.951  0.000  0.951  0.000   24.7    0.0   24.7    0.0
 1992 206    22   9.40  10.50  -0.90  1.621  0.835  0.000  0.835  0.000   25.6    0.0   25.6    0.0
 1992 207    23  10.70  15.20   3.40  2.085  0.753  0.000  0.753  0.000   26.3    0.0   26.3    0.0
 1992 208    24   4.20  11.80   9.50  0.827  0.692  0.000  0.692  0.000   27.0    0.0   27.0    0.0
 1992 209    25  12.50  14.00   5.80  2.450  2.450  0.000  2.450  0.000   29.5    0.0   29.5    0.0
 1992 210    26   4.20  11.10   3.00  0.764  0.764  0.000  0.764  0.000   30.2    0.0   30.2    0.0
 1992 211    27   9.60  16.80   9.10  2.024  1.200  0.000  1.200  0.000   31.4    0.0   31.4    0.0
 1992 212    28   4.30  13.60   7.50  0.852  0.852  0.000  0.852  0.000   32.3    0.0   32.3    0.0
 1992 213    29   6.30   9.40   3.80  1.124  1.124  0.000  1.124  0.000   33.4    0.0   33.4    0.0
 1992 214    30  13.60   8.80   0.20  2.306  1.006  0.000  1.006  0.000   34.4    0.0   34.4    0.0
 1992 215    31  13.70  12.00   0.10  2.450  0.871  0.000  0.871  0.000   35.3    0.0   35.3    0.0
 1992 216    32  13.70  13.70   0.50  2.530  0.780  0.000  0.780  0.000   36.1    0.0   36.1    0.0
 1992 217    33  10.00  12.50   1.20  1.825  0.712  0.000  0.712  0.000   36.8    0.0   36.8    0.0
 1992 218    34  12.80  17.40  -1.30  2.458  0.660  0.000  0.660  0.000   37.4    0.0   37.4    0.0
 1992 219    35  15.20  25.60   6.90  3.534  0.617  0.000  0.617  0.000   38.0    0.0   38.0    0.0
 1992 220    36   4.50  21.40   8.20  1.002  0.582  0.000  0.582  0.000   38.6    0.0   38.6    0.0
 1992 221    37  14.50  10.40   1.40  2.562  1.920  0.000  1.920  0.000   40.5    0.0   40.5    0.0
 1992 222    38  10.20  13.40  -0.60  1.852  0.577  0.000  0.577  0.000   41.1    0.0   41.1    0.0
 1992 223    39   9.40  15.40   7.80  1.919  0.548  0.000  0.548  0.000   41.7    0.0   41.7    0.0
 1992 224    40  15.10  14.90   3.90  2.943  0.523  0.000  0.523  0.000   42.2    0.0   42.2    0.0
 1992 225    41  14.50  15.90   6.10  2.932  0.501  0.000  0.501  0.000   42.7    0.0   42.7    0.0
 1992 226    42  15.60  18.00   2.80  3.150  0.481  0.000  0.481  0.000   43.2    0.0   43.2    0.0
 1992 227    43  14.70  18.40   3.00  2.992  0.464  0.000  0.464  0.000   43.6    0.0   43.6    0.0
 1992 228    44   9.50  19.20   5.70  2.007  0.449  0.000  0.449  0.000   44.1    0.0   44.1    0.0
 1992 229    45  15.30  22.20   8.70  3.458  0.435  0.000  0.435  0.000   44.5    0.0   44.5    0.0
 1992 230    46  12.30  23.20   9.70  2.840  0.426  0.004  0.422  0.000   44.9    0.0   44.9    0.0
 1992 231    47  14.00  20.80   9.20  3.119  0.419  0.009  0.410  0.000   45.4    0.0   45.3    0.0
 1992 232    48  13.40  19.60   7.90  2.903  0.411  0.012  0.399  0.000   45.8    0.0   45.7    0.0
 1992 233    49  13.30  19.40   6.20  2.828  0.404  0.015  0.389  0.000   46.2    0.0   46.1    0.0
 1992 234    50  16.90  23.10   9.50  3.888  0.404  0.024  0.380  0.000   46.6    0.1   46.5    0.0
 1992 235    51   7.80  20.10  13.90  1.792  1.214  0.014  1.200  0.000   47.8    0.1   47.7    0.0
 1992 236    52  17.00  19.30   9.60  3.721  3.721  0.036  3.685  0.000   51.5    0.1   51.4    0.0
 1992 237    53  17.80  21.00   7.10  3.897  0.481  0.044  0.437  0.000   52.0    0.2   51.8    0.0
 1992 238    54  18.00  21.20   5.80  3.904  0.474  0.050  0.424  0.000   52.5    0.2   52.3    0.0
 1992 239    55  17.90  20.30   6.20  3.847  0.479  0.067  0.412  0.000   53.0    0.3   52.7    0.0
 1992 240    56  17.60  25.40   6.30  4.048  0.491  0.090  0.401  0.000   53.4    0.4   53.1    0.0
 1992 241    57  11.50  18.80  11.40  2.533  0.466  0.075  0.391  0.000   53.9    0.4   53.5    0.0
 1992 242    58  14.20  24.40  11.00  3.348  0.502  0.120  0.382  0.000   54.4    0.6   53.8    0.0
 1992 243    59   5.50  20.90  15.20  1.284  0.432  0.059  0.373  0.000   54.8    0.6   54.2    0.0
 1992 244    60   7.20  13.80   9.60  1.449  1.449  0.082  1.367  0.000   56.3    0.7   55.6    0.0
 1992 245    61   7.50  14.00   7.20  1.477  0.590  0.089  0.501  0.000   56.9    0.8   56.1    0.0
 1992 246    62   5.70  14.80   8.60  1.151  0.554  0.073  0.481  0.000   57.4    0.9   56.6    0.0
 1992 247    63  14.90  17.40   7.30  3.084  0.671  0.207  0.464  0.000   58.1    1.1   57.0    0.0
 1992 248    64  18.80  18.80   6.80  3.946  0.735  0.287  0.449  0.000   58.8    1.4   57.5    0.0
 1992 249    65  18.30  21.20   6.10  3.941  0.747  0.312  0.435  0.000   59.6    1.7   57.9    0.0
 1992 250    66  18.30  18.80   8.70  3.900  0.763  0.341  0.422  0.000   60.4    2.0   58.3    0.0
 1992 251    67  17.80  20.60   9.70  3.917  0.785  0.375  0.410  0.000   61.1    2.4   58.8    0.0
 1992 252    68   5.90  20.10  13.60  1.333  0.541  0.141  0.399  0.000   61.7    2.5   59.1    0.0
 1992 253    69  11.20  20.00  13.40  2.517  0.688  0.298  0.389  0.000   62.4    2.8   59.5    0.0
 1992 254    70  12.60  21.60  13.10  2.877  0.759  0.379  0.380  0.000   63.1    3.2   59.9    0.0
 1992 255    71   8.60  21.20  14.90  1.979  1.979  0.291  1.689  0.000   65.1    3.5   61.6    0.0
 1992 256    72  16.90  19.30  12.30  3.703  1.726  0.606  1.120  0.000   66.8    4.1   62.7    0.0
 1992 257    73  10.20  16.70   8.80  2.085  0.810  0.370  0.439  0.000   67.6    4.5   63.2    0.0
 1992 258    74  17.10  20.10   6.20  3.573  1.092  0.665  0.426  0.000   68.7    5.1   63.6    0.0
 1992 259    75  19.70  21.30   9.00  4.283  1.258  0.844  0.414  0.000   70.0    6.0   64.0    0.0
 1992 260    76  12.60  22.60  12.60  2.867  1.011  0.608  0.403  0.000   71.0    6.6   64.4    0.0
 1992 261    77  14.90  26.70  15.20  3.629  1.233  0.840  0.393  0.000   72.2    7.4   64.8    0.0
 1992 262    78  19.80  16.60   9.30  4.011  4.011  1.039  2.972  0.000   76.2    8.5   67.8    0.0
 1992 263    79  21.60  19.30   5.20  4.366  1.589  1.180  0.409  0.000   77.8    9.6   68.2    0.0
 1992 264    80  21.40  25.60   5.90  4.730  1.725  1.327  0.398  0.000   79.6   11.0   68.6    0.0
 1992 265    81  21.20  30.00  10.20  5.107  1.929  1.540  0.388  0.000   81.5   12.5   69.0    0.0
 1992 266    82   6.50  12.70   8.80  1.224  1.224  0.413  0.811  0.000   82.7   12.9   69.8    0.0
 1992 267    83  16.00  18.60   6.50  3.205  3.205  1.105  2.101  0.000   85.9   14.0   71.9    0.0
 1992 268    84   6.60  13.20  10.60  1.270  1.270  0.455  0.815  0.000   87.2   14.5   72.7    0.0
 1992 269    85  21.20  12.50   4.50  3.791  3.791  1.396  2.395  0.000   91.0   15.9   75.1    0.0
 1992 270    86  20.60  14.20   0.80  3.642  3.642  1.323  2.319  0.000   94.6   17.2   77.4    0.0
 1992 271    87  21.70  20.00   4.50  4.391  3.649  1.249  2.400  0.000   98.3   18.5   79.8    0.0
 1992 272    88  23.00  21.40   5.30  4.773  3.969  1.409  2.559  0.000  102.2   19.9   82.4    0.0
 1992 273    89  23.30  23.20   6.10  4.974  2.965  1.565  1.401  0.000  105.2   21.4   83.8    0.0
 1992 274    90  22.50  26.20  10.30  5.153  2.836  1.746  1.090  0.000  108.0   23.2   84.9    0.0
 1992 275    91  12.50  26.40  11.00  2.871  1.997  1.072  0.924  0.000  110.0   24.2   85.8    0.0
 1992 276    92  11.80  21.80  13.00  2.589  2.589  1.054  1.536  0.000  112.6   25.3   87.3    0.0
 1992 277    93  17.90  20.60  11.10  3.789  2.513  1.645  0.868  0.000  115.1   26.9   88.2    0.0
 1992 278    94  18.00  25.50  11.70  4.061  2.632  1.854  0.777  0.000  117.8   28.8   89.0    0.0
 1992 279    95   7.10  18.20  11.80  1.453  1.418  0.708  0.710  0.000  119.2   29.5   89.7    0.0
 1992 280    96  24.40  15.90   7.40  4.630  4.630  2.345  2.285  0.000  123.8   31.9   92.0    0.0
 1992 281    97  21.30  15.60   4.20  3.892  3.437  2.016  1.420  0.000  127.3   33.9   93.4    0.0
 1992 282    98  24.30  19.00   3.40  4.633  4.633  2.390  2.243  0.000  131.9   36.3   95.6    0.0
 1992 283    99  24.30  21.00   6.60  4.916  4.120  2.484  1.636  0.000  136.0   38.7   97.3    0.0
 1992 284   100  25.10  25.30   7.30  5.391  4.014  2.826  1.188  0.000  140.0   41.6   98.4    0.0
 1992 285   101  16.70  27.20   9.20  3.717  3.004  2.023  0.981  0.000  143.0   43.6   99.4    0.0
 1992 286   102  22.70  24.00  12.40  4.964  3.732  2.876  0.855  0.000  146.8   46.5  100.3    0.0
 1992 287   103  25.10  25.60   8.60  5.403  4.047  3.279  0.768  0.000  150.8   49.7  101.1    0.0
 1992 288   104  24.70  29.50  11.40  5.682  4.282  3.578  0.703  0.000  155.1   53.3  101.8    0.0
 1992 289   105   7.60  31.50  15.50  1.837  1.837  1.211  0.626  0.000  156.9   54.5  102.4    0.0
 1992 290   106   9.30  20.50  15.70  1.971  1.971  1.339  0.633  0.000  158.9   55.9  103.0    0.0
 1992 291   107  23.40  21.20  12.00  4.835  4.835  3.383  1.452  0.000  163.7   59.3  104.5    0.0
 1992 292   108  25.90  21.20   7.50  5.132  5.132  3.674  1.458  0.000  168.9   62.9  105.9    0.0
 1992 293   109   9.10  19.80  11.20  1.826  1.826  1.328  0.498  0.000  170.7   64.3  106.4    0.0
 1992 294   110  24.10  18.60  10.30  4.712  4.712  3.486  1.225  0.000  175.4   67.7  107.6    0.0
 1992 295   111  26.10  21.30   5.50  5.060  5.060  3.797  1.264  0.000  180.5   71.5  108.9    0.0
 1992 296   112  24.90  24.50   7.60  5.124  5.124  3.890  1.234  0.000  185.6   75.4  110.1    0.0
 1992 297   113  25.00  27.30  12.00  5.513  5.513  4.252  1.261  0.000  191.1   79.7  111.4    0.0
 1992 298   114  24.60  30.90  14.60  5.757  5.675  4.537  1.139  0.000  196.8   84.2  112.5    0.0
 1992 299   115   9.50  26.40  17.60  2.155  2.155  1.740  0.415  0.000  198.9   86.0  113.0    0.0
 1992 300   116  26.70  27.40  17.30  6.102  6.102  4.994  1.108  0.000  205.0   91.0  114.1    0.0
 1992 301   117  27.40  30.00  15.80  6.363  6.084  5.029  1.055  0.000  211.1   96.0  115.1    0.0
 1992 302   118  10.50  15.30   6.40  1.852  1.852  1.621  0.231  0.000  213.0   97.6  115.4    0.0
 1992 303   119  27.70  21.90   3.90  5.236  4.196  3.577  0.619  0.000  217.2  101.2  116.0    0.0
 1992 304   120  26.80  21.80   6.40  5.180  4.206  3.561  0.645  0.000  221.4  104.7  116.6    0.0
 1992 305   121  26.90  23.80   6.80  5.356  4.064  3.408  0.657  0.000  225.4  108.2  117.3    0.0
 1992 306   122  27.10  27.10   9.00  5.731  3.983  3.285  0.697  0.000  229.4  111.4  118.0    0.0
 1992 307   123  27.30  30.20  13.00  6.182  3.727  2.972  0.754  0.000  233.1  114.4  118.7    0.0
 1992 308   124  21.90  19.80   9.40  4.232  3.151  2.626  0.524  0.000  236.3  117.0  119.3    0.0
 1992 309   125  27.20  14.10   6.50  4.718  4.718  4.127  0.592  0.000  241.0  121.2  119.8    0.0
 1992 310   126  24.50  16.40   2.70  4.234  4.234  3.708  0.526  0.000  245.2  124.9  120.4    0.0
 1992 311   127  27.00  19.20   4.80  4.982  4.982  4.216  0.765  0.000  250.2  129.1  121.1    0.0
 1992 312   128  27.40  21.50   7.30  5.340  3.772  2.945  0.827  0.000  254.0  132.0  122.0    0.0
 1992 313   129  28.00  25.20   8.30  5.778  3.180  2.269  0.911  0.000  257.2  134.3  122.9    0.0
 1992 314   130  28.20  29.80  10.00  6.246  2.996  1.978  1.018  0.000  260.2  136.3  123.9    0.0
 1992 315   131   8.60  22.00  16.00  1.821  1.821  1.511  0.310  0.000  262.0  137.8  124.2    0.0
 1992 316   132  23.60  28.40  16.10  5.394  2.504  1.606  0.898  0.000  264.5  139.4  125.1    0.0
 1992 317   133  28.00  29.50  15.30  6.449  2.822  1.700  1.122  0.000  267.3  141.1  126.2    0.0
 1992 318   134  28.50  27.90  12.90  6.333  2.530  1.374  1.156  0.000  269.9  142.5  127.4    0.0
 1992 319   135  19.40  31.40  14.40  4.546  2.498  1.623  0.875  0.000  272.3  144.1  128.3    0.0
 1992 320   136  23.00  25.50  17.30  5.155  2.893  1.870  1.023  0.000  275.2  146.0  129.3    0.0
 1992 321   137  28.80  20.40  11.50  5.781  5.781  4.601  1.180  0.000  281.0  150.6  130.5    0.0
 1992 322   138  28.20  21.50   7.70  5.551  5.536  4.430  1.107  0.000  286.6  155.0  131.6    0.0
 1992 323   139  28.80  23.90   7.20  5.822  5.822  4.682  1.140  0.000  292.4  159.7  132.7    0.0
 1992 324   140  29.50  28.10  11.20  6.492  6.439  5.195  1.244  0.000  298.8  164.9  133.9    0.0
 1992 325   141  22.20  30.00  13.80  5.092  4.837  4.150  0.688  0.000  303.7  169.0  134.6    0.0
 1992 326   142   8.70  21.20  13.60  1.790  1.753  1.436  0.317  0.000  305.4  170.5  135.0    0.0
 1992 327   143  25.70  19.30  10.00  4.999  4.311  3.418  0.893  0.000  309.7  173.9  135.8    0.0
 1992 328   144  22.10  20.60   6.40  4.236  3.519  2.752  0.767  0.000  313.2  176.6  136.6    0.0
 1992 329   145  24.00  26.00  11.10  5.139  3.273  2.330  0.944  0.000  316.5  179.0  137.6    0.0
 1992 330   146  21.90  23.90  15.40  4.738  2.848  1.945  0.903  0.000  319.4  180.9  138.5    0.0
 1992 331   147  19.00  26.00  14.30  4.183  2.487  1.660  0.827  0.000  321.8  182.6  139.3    0.0
 1992 332   148  30.10  27.20  12.90  6.656  2.617  1.519  1.097  0.000  324.5  184.1  140.4    0.0
 1992 333   149  21.00  27.70  13.50  4.701  2.241  1.337  0.903  0.000  326.7  185.4  141.3    0.0
 1992 334   150  19.80  29.80  16.90  4.667  1.182  1.158  0.024  0.000  327.9  186.6  141.3    0.0
 1992 335   151  21.90  28.00  18.70  5.135  1.094  1.073  0.020  0.000  329.0  187.7  141.3    0.0
 1992 336   152  29.50  23.90  14.00  6.365  6.315  4.721  1.594  0.000  335.3  192.4  142.9    0.0
 1992 337   153  30.20  24.80   8.90  6.317  6.317  4.729  1.588  0.000  341.6  197.1  144.5    0.0
 1992 338   154  26.20  27.40   9.70  5.699  5.653  4.215  1.438  0.000  347.3  201.3  146.0    0.0
 1992 339   155  30.30  29.10  13.50  6.931  6.773  5.176  1.597  0.000  354.0  206.5  147.5    0.0
 1992 340   156  18.70  28.20  13.80  4.243  3.985  2.907  1.079  0.000  358.0  209.4  148.6    0.0
 1992 341   157  25.20  29.60  18.90  6.039  4.490  2.949  1.541  0.000  362.5  212.3  150.2    0.0
 1992 342   158  23.30  26.40  15.40  5.247  5.218  3.848  1.371  0.000  367.7  216.2  151.5    0.0
 1992 343   159  25.40  27.90  14.80  5.794  5.794  4.281  1.514  0.000  373.5  220.5  153.1    0.0
 1992 344   160  21.00  26.70  16.50  4.787  4.770  3.520  1.251  0.000  378.3  224.0  154.3    0.0
 1992 345   161  22.70  27.30  18.10  5.275  4.853  3.897  0.956  0.000  383.2  227.9  155.3    0.0
 1992 346   162  23.20  26.50  15.70  5.243  5.126  3.757  1.370  0.000  388.3  231.6  156.6    0.0
 1992 347   163  29.50  27.30  13.40  6.610  5.079  3.352  1.727  0.000  393.4  235.0  158.4    0.0
 1992 348   164  30.90  30.20  14.90  7.248  3.860  2.475  1.385  0.000  397.2  237.5  159.7    0.0
 1992 349   165  28.90  28.40  15.70  6.691  3.112  2.029  1.083  0.000  400.3  239.5  160.8    0.0
 1992 350   166  30.30  28.00  10.00  6.687  2.696  1.776  0.920  0.000  403.0  241.3  161.7    0.0
 1992 351   167  24.80  29.80  12.50  5.711  2.381  1.567  0.814  0.000  405.4  242.8  162.6    0.0
 1992 352   168  19.40  27.60  17.70  4.540  2.165  1.427  0.738  0.000  407.6  244.3  163.3    0.0
 1992 353   169  29.70  30.40  14.50  7.013  1.787  1.291  0.496  0.000  409.4  245.6  163.8    0.0
 1992 354   170  18.00  30.80  14.60  4.281  1.226  1.198  0.029  0.000  410.6  246.8  163.8    0.0
 1992 355   171  31.80  33.80  18.10  8.029  0.927  0.903  0.024  0.000  411.5  247.7  163.8    0.0
 1992 356   172  25.50  32.40  15.70  6.247  0.794  0.774  0.020  0.000  412.3  248.4  163.9    0.0
 1992 357   173  11.20  29.40  18.60  2.717  0.739  0.722  0.017  0.000  413.0  249.2  163.9    0.0
 1992 358   174  11.20  27.70  20.80  2.714  1.699  0.680  1.019  0.000  414.7  249.8  164.9    0.0
 1992 359   175  27.80  28.90  17.70  6.680  3.041  0.472  2.569  0.000  417.8  250.3  167.5    0.0
 1992 360   176  22.90  27.40  15.10  5.313  5.292  3.174  2.118  0.000  423.1  253.5  169.6    0.0
 1992 361   177  31.40  27.40  13.20  7.180  6.555  4.307  2.248  0.000  429.6  257.8  171.8    0.0
 1992 362   178  31.00  28.00  12.60  7.107  6.824  4.137  2.687  0.000  436.5  261.9  174.5    0.0
 1992 363   179  30.00  32.00  13.10  7.232  5.387  3.973  1.415  0.000  441.8  265.9  175.9    0.0
 1992 364   180   9.10  25.60  19.70  2.146  1.805  0.929  0.876  0.000  443.6  266.8  176.8    0.0
 1992 365   181   9.10  23.30  19.60  2.089  1.718  0.857  0.861  0.000  445.4  267.7  177.7    0.0
 1992 366   182   9.10  20.20  19.20  2.007  1.761  0.923  0.838  0.000  447.1  268.6  178.5    0.0
 1993 001   183   9.10  21.20  19.60  2.040  2.040  1.178  0.862  0.000  449.2  269.8  179.4    0.0
 1993 002   184   9.10  21.80  19.40  2.053  2.053  1.175  0.878  0.000  451.2  271.0  180.3    0.0
 1993 003   185   9.10  21.90  19.70  2.062  2.062  1.170  0.892  0.000  453.3  272.1  181.1    0.0
 1993 004   186  14.90  28.90  19.80  3.665  3.665  2.061  1.604  0.000  456.9  274.2  182.7    0.0
 1993 005   187  23.60  30.80  21.50  6.005  6.005  3.349  2.656  0.000  463.0  277.5  185.4    0.0
 1993 006   188  29.90  32.00  19.70  7.613  6.948  4.210  2.738  0.000  469.9  281.8  188.1    0.0
 1993 007   189  12.50  27.20  20.30  3.035  3.035  1.664  1.371  0.000  472.9  283.4  189.5    0.0
 1993 008   190  20.20  26.60  20.10  4.868  4.868  2.644  2.224  0.000  477.8  286.1  191.7    0.0
 1993 009   191  30.70  26.90  16.00  7.201  7.201  3.868  3.332  0.000  485.0  289.9  195.1    0.0
 1993 010   192  30.90  31.10  16.00  7.609  6.359  4.040  2.319  0.000  491.4  294.0  197.4    0.0
 1993 011   193  31.30  32.20  17.60  7.901  6.237  4.142  2.095  0.000  497.6  298.1  199.5    0.0
 1993 012   194  30.90  32.70  19.60  7.964  5.436  4.114  1.322  0.000  503.0  302.2  200.8    0.0
 1993 013   195  22.70  33.00  20.70  5.915  4.108  3.055  1.053  0.000  507.1  305.3  201.9    0.0
 1993 014   196  17.40  30.10  22.30  4.447  3.198  2.297  0.901  0.000  510.3  307.6  202.8    0.0

*DSSAT Cropping System Model Ver. 4.0.2.000               Jul 19, 2016; 16:47:46

*RUN   4        : UYMZ                    
 MODEL          : MZCER040 - Maize           
 EXPERIMENT     : UYMZ0043 MZ    late to create DSS                             
 TREATMENT  1   : UYMZ                    

@YEAR DOY   DAS   SRAA   TMXA   TMNA   EOAA   ETAA   EPAA   ESAA   EFAD   ETAC   EPAC   ESAC   EFAC
 1993 184     0   3.70  13.20   7.00  0.725  0.616  0.000  0.616  0.000    0.6    0.0    0.6    0.0
 1993 185     1   3.70  12.90  10.70  0.749  0.749  0.000  0.749  0.000    1.4    0.0    1.4    0.0
 1993 186     2   3.70  12.30   9.80  0.736  0.736  0.000  0.736  0.000    2.1    0.0    2.1    0.0
 1993 187     3   4.50   9.80   3.20  0.803  0.803  0.000  0.803  0.000    2.9    0.0    2.9    0.0
 1993 188     4   9.50  11.20  -0.10  1.673  1.673  0.000  1.673  0.000    4.6    0.0    4.6    0.0
 1993 189     5  13.20  16.30   3.10  2.607  2.607  0.000  2.607  0.000    7.2    0.0    7.2    0.0
 1993 190     6  11.30  15.90   2.70  2.209  1.693  0.000  1.693  0.000    8.9    0.0    8.9    0.0
 1993 191     7   3.80  10.60   2.40  0.681  0.681  0.000  0.681  0.000    9.6    0.0    9.6    0.0
 1993 192     8  13.30  14.50   1.90  2.524  2.335  0.000  2.335  0.000   11.9    0.0   11.9    0.0
 1993 193     9  11.70  13.60   0.70  2.162  1.369  0.000  1.369  0.000   13.3    0.0   13.3    0.0
 1993 194    10   7.80   9.00   2.30  1.360  1.075  0.000  1.075  0.000   14.3    0.0   14.3    0.0
 1993 195    11  12.90  10.60   1.10  2.279  0.915  0.000  0.915  0.000   15.3    0.0   15.3    0.0
 1993 196    12  12.00  12.10  -1.70  2.107  0.811  0.000  0.811  0.000   16.1    0.0   16.1    0.0
 1993 197    13  11.50  15.40   0.10  2.172  0.735  0.000  0.735  0.000   16.8    0.0   16.8    0.0
 1993 198    14  10.80  16.90   0.10  2.088  0.678  0.000  0.678  0.000   17.5    0.0   17.5    0.0
 1993 199    15   3.90  15.20   8.90  0.802  0.632  0.000  0.632  0.000   18.1    0.0   18.1    0.0
 1993 200    16  10.90  25.10  12.30  2.635  0.594  0.000  0.594  0.000   18.7    0.0   18.7    0.0
 1993 201    17  13.20  28.30  14.90  3.383  0.563  0.000  0.563  0.000   19.3    0.0   19.3    0.0
 1993 202    18   4.00  17.00  11.40  0.864  0.536  0.000  0.536  0.000   19.8    0.0   19.8    0.0
 1993 203    19   4.40  19.80  12.50  0.996  0.512  0.000  0.512  0.000   20.3    0.0   20.3    0.0
 1993 204    20   4.10  20.10  11.60  0.925  0.492  0.000  0.492  0.000   20.8    0.0   20.8    0.0
 1993 205    21  14.00  12.40   1.70  2.564  0.477  0.004  0.473  0.000   21.3    0.0   21.3    0.0
 1993 206    22  13.00  11.90  -1.00  2.292  0.460  0.003  0.457  0.000   21.7    0.0   21.7    0.0
 1993 207    23   4.10  11.00   3.40  0.748  0.748  0.001  0.747  0.000   22.5    0.0   22.5    0.0
 1993 208    24   7.40  19.80  11.10  1.655  1.655  0.001  1.654  0.000   24.1    0.0   24.1    0.0
 1993 209    25   4.20  15.50   8.40  0.863  0.863  0.002  0.862  0.000   25.0    0.0   25.0    0.0
 1993 210    26   4.20   8.70   5.80  0.757  0.757  0.002  0.755  0.000   25.8    0.0   25.8    0.0
 1993 211    27   4.20   8.40   4.70  0.744  0.744  0.002  0.743  0.000   26.5    0.0   26.5    0.0
 1993 212    28   4.70  10.30   6.10  0.872  0.872  0.002  0.870  0.000   27.4    0.0   27.4    0.0
 1993 213    29  14.50  11.30   2.30  2.625  2.625  0.006  2.619  0.000   30.0    0.0   30.0    0.0
 1993 214    30  14.10  15.00  -0.10  2.641  2.591  0.006  2.585  0.000   32.6    0.0   32.6    0.0
 1993 215    31  14.80  15.20   0.60  2.801  2.801  0.004  2.797  0.000   35.4    0.0   35.4    0.0
 1993 216    32  11.00  18.80   3.80  2.269  1.658  0.003  1.656  0.000   37.1    0.0   37.0    0.0
 1993 217    33   9.70  26.50  11.80  2.375  1.199  0.004  1.195  0.000   38.3    0.0   38.2    0.0
 1993 218    34  12.20  28.60  15.10  3.141  0.998  0.012  0.985  0.000   39.3    0.1   39.2    0.0
 1993 219    35  11.20  28.00  13.10  2.818  0.878  0.020  0.858  0.000   40.1    0.1   40.1    0.0
 1993 220    36   4.50  13.00   6.10  0.870  0.779  0.009  0.770  0.000   40.9    0.1   40.8    0.0
 1993 221    37  14.40  11.40   0.40  2.554  2.554  0.026  2.528  0.000   43.5    0.1   43.4    0.0
 1993 222    38  15.00  14.20   0.50  2.789  1.510  0.020  1.490  0.000   45.0    0.1   44.8    0.0
 1993 223    39  13.60  17.80   2.40  2.725  1.144  0.014  1.130  0.000   46.1    0.1   46.0    0.0
 1993 224    40   9.10  19.80   4.40  1.913  0.958  0.010  0.948  0.000   47.1    0.1   46.9    0.0
 1993 225    41  13.40  21.40   5.20  2.901  0.857  0.023  0.833  0.000   47.9    0.2   47.8    0.0
 1993 226    42   9.50  22.60   4.30  2.072  0.779  0.026  0.752  0.000   48.7    0.2   48.5    0.0
 1993 227    43  16.00  24.00   7.40  3.651  0.753  0.062  0.691  0.000   49.5    0.3   49.2    0.0
 1993 228    44  12.00  20.80   7.40  2.622  0.708  0.065  0.643  0.000   50.2    0.3   49.8    0.0
 1993 229    45  14.40  11.40   4.70  2.668  2.668  0.083  2.585  0.000   52.8    0.4   52.4    0.0
 1993 230    46  16.10  15.50  -0.20  3.022  0.878  0.095  0.782  0.000   53.7    0.5   53.2    0.0
 1993 231    47  16.70  18.70   1.60  3.357  0.783  0.069  0.714  0.000   54.5    0.6   53.9    0.0
 1993 232    48  16.40  19.00   2.00  3.325  0.726  0.064  0.661  0.000   55.2    0.6   54.6    0.0
 1993 233    49  15.00  18.60   2.30  3.032  0.677  0.059  0.618  0.000   55.9    0.7   55.2    0.0
 1993 234    50  11.80  20.00   6.40  2.529  0.633  0.050  0.583  0.000   56.5    0.7   55.8    0.0
 1993 235    51  11.00  20.00   5.50  2.336  0.615  0.061  0.553  0.000   57.2    0.8   56.3    0.0
 1993 236    52  17.00  22.60   6.10  3.757  0.649  0.121  0.527  0.000   57.8    0.9   56.9    0.0
 1993 237    53  16.20  24.20   8.80  3.737  0.660  0.155  0.505  0.000   58.5    1.1   57.4    0.0
 1993 238    54  15.20  26.40  10.40  3.646  0.681  0.195  0.485  0.000   59.1    1.3   57.9    0.0
 1993 239    55  14.70  29.20  12.50  3.699  0.723  0.256  0.468  0.000   59.9    1.5   58.3    0.0
 1993 240    56  13.50  31.30  18.70  3.632  0.778  0.326  0.452  0.000   60.6    1.9   58.8    0.0
 1993 241    57   5.40  19.00  15.40  1.219  0.583  0.145  0.437  0.000   61.2    2.0   59.2    0.0
 1993 242    58   5.40  16.30  13.10  1.150  1.150  0.156  0.994  0.000   62.4    2.2   60.2    0.0
 1993 243    59   5.50  12.20   9.20  1.062  1.062  0.156  0.905  0.000   63.4    2.3   61.1    0.0
 1993 244    60   6.30  13.60  10.20  1.253  1.253  0.191  1.062  0.000   64.7    2.5   62.2    0.0
 1993 245    61  14.50  13.00   8.40  2.807  2.807  0.441  2.366  0.000   67.5    3.0   64.5    0.0
 1993 246    62  19.30  17.00   4.50  3.812  3.812  0.613  3.199  0.000   71.3    3.6   67.7    0.0
 1993 247    63  19.40  24.10   5.80  4.277  3.020  0.700  2.320  0.000   74.3    4.3   70.1    0.0
 1993 248    64  19.60  22.00   7.00  4.236  2.854  0.764  2.090  0.000   77.2    5.0   72.2    0.0
 1993 249    65  17.90  23.50   6.30  3.913  2.089  0.768  1.321  0.000   79.3    5.8   73.5    0.0
 1993 250    66  18.40  15.80   7.90  3.662  1.833  0.781  1.052  0.000   81.1    6.6   74.5    0.0
 1993 251    67  19.70  16.90   4.60  3.853  1.759  0.859  0.901  0.000   82.9    7.4   75.4    0.0
 1993 252    68  20.00  19.90   3.90  4.054  1.721  0.920  0.801  0.000   84.6    8.4   76.2    0.0
 1993 253    69  20.10  21.50   4.90  4.203  1.692  0.964  0.728  0.000   86.3    9.3   77.0    0.0
 1993 254    70  17.10  15.00   5.20  3.262  1.461  0.789  0.672  0.000   87.7   10.1   77.6    0.0
 1993 255    71  19.80  19.10   4.00  3.960  1.604  0.977  0.627  0.000   89.3   11.1   78.3    0.0
 1993 256    72   7.30  18.00   5.60  1.459  0.954  0.363  0.590  0.000   90.3   11.4   78.8    0.0
 1993 257    73  13.10  18.20   9.90  2.729  1.264  0.704  0.559  0.000   91.6   12.2   79.4    0.0
 1993 258    74  15.70  22.40   9.20  3.429  1.472  0.939  0.533  0.000   93.0   13.1   79.9    0.0
 1993 259    75  20.70  25.60   7.80  4.637  1.894  1.384  0.510  0.000   94.9   14.5   80.4    0.0
 1993 260    76  21.10  23.00  10.90  4.674  2.024  1.535  0.489  0.000   97.0   16.0   80.9    0.0
 1993 261    77  11.60  24.00  12.20  2.619  1.409  0.937  0.471  0.000   98.4   16.9   81.4    0.0
 1993 262    78  15.70  23.00  10.90  3.446  1.796  1.341  0.455  0.000  100.2   18.3   81.9    0.0
 1993 263    79  16.50  19.10   8.80  3.365  3.365  1.389  1.976  0.000  103.5   19.7   83.8    0.0
 1993 264    80   8.70  11.40   4.10  1.508  1.208  0.649  0.560  0.000  104.7   20.3   84.4    0.0
 1993 265    81   6.50  12.20   4.50  1.148  1.015  0.482  0.533  0.000  105.7   20.8   84.9    0.0
 1993 266    82   6.50  14.90  10.00  1.264  1.034  0.524  0.510  0.000  106.8   21.3   85.4    0.0
 1993 267    83   7.00  17.00  12.00  1.425  1.098  0.608  0.490  0.000  107.9   21.9   85.9    0.0
 1993 268    84   7.80  19.00  12.10  1.629  1.195  0.724  0.471  0.000  109.1   22.7   86.4    0.0
 1993 269    85   9.00  14.90  10.60  1.747  1.747  0.812  0.934  0.000  110.8   23.5   87.3    0.0
 1993 270    86  18.40  21.50  10.30  3.888  3.888  1.857  2.031  0.000  114.7   25.3   89.4    0.0
 1993 271    87  21.60  22.10   8.50  4.514  4.514  2.253  2.261  0.000  119.2   27.6   91.6    0.0
 1993 272    88  15.50  19.80   7.80  3.112  3.112  1.614  1.498  0.000  122.3   29.2   93.1    0.0
 1993 273    89   7.70  20.60  14.30  1.650  1.428  0.885  0.543  0.000  123.8   30.1   93.7    0.0
 1993 274    90   9.30  23.30  15.60  2.075  2.075  1.172  0.903  0.000  125.8   31.3   94.6    0.0
 1993 275    91   6.90  18.60  16.00  1.449  1.449  0.865  0.584  0.000  127.3   32.1   95.2    0.0
 1993 276    92  11.30  19.80  13.40  2.348  2.348  1.457  0.891  0.000  129.6   33.6   96.1    0.0
 1993 277    93   7.30  19.40  12.80  1.497  1.497  0.960  0.537  0.000  131.1   34.5   96.6    0.0
 1993 278    94  22.90  17.40   9.50  4.424  4.424  2.919  1.505  0.000  135.6   37.5   98.1    0.0
 1993 279    95  24.10  20.10   5.30  4.641  4.641  3.116  1.525  0.000  140.2   40.6   99.6    0.0
 1993 280    96  24.80  23.70   7.20  5.092  5.059  3.468  1.591  0.000  145.3   44.0  101.2    0.0
 1993 281    97  19.60  27.50  12.30  4.391  4.391  3.058  1.334  0.000  149.6   47.1  102.5    0.0
 1993 282    98  18.00  29.20  13.10  4.126  4.126  2.967  1.159  0.000  153.8   50.1  103.7    0.0
 1993 283    99  24.70  31.80  17.30  5.996  5.996  4.452  1.544  0.000  159.8   54.5  105.2    0.0
 1993 284   100  23.70  33.30  17.60  5.837  5.784  4.490  1.294  0.000  165.6   59.0  106.5    0.0
 1993 285   101   7.40  23.60  17.20  1.622  1.622  1.289  0.333  0.000  167.2   60.3  106.9    0.0
 1993 286   102   7.40  18.30  16.80  1.511  1.511  1.218  0.294  0.000  168.7   61.5  107.2    0.0
 1993 287   103   9.00  22.10  16.40  1.919  1.919  1.565  0.353  0.000  170.6   63.1  107.5    0.0
 1993 288   104  18.60  24.90  13.90  4.014  4.014  3.321  0.693  0.000  174.6   66.4  108.2    0.0
 1993 289   105  25.30  31.60  14.90  5.937  5.937  4.984  0.952  0.000  180.6   71.4  109.2    0.0
 1993 290   106   9.20  25.70  13.30  1.987  1.987  1.699  0.289  0.000  182.5   73.1  109.5    0.0
 1993 291   107  18.70  21.10   8.70  3.661  3.661  3.159  0.502  0.000  186.2   76.2  110.0    0.0
 1993 292   108  18.30  22.60  12.30  3.766  3.766  3.270  0.495  0.000  190.0   79.5  110.5    0.0
 1993 293   109  16.80  24.50  16.60  3.661  3.661  3.207  0.454  0.000  193.6   82.7  110.9    0.0
 1993 294   110  18.20  26.80  17.30  4.092  4.092  3.624  0.468  0.000  197.7   86.3  111.4    0.0
 1993 295   111   7.80  18.50  12.60  1.520  1.520  1.361  0.159  0.000  199.2   87.7  111.5    0.0
 1993 296   112   7.80  16.40  12.10  1.470  1.470  1.322  0.148  0.000  200.7   89.0  111.7    0.0
 1993 297   113   8.20  17.30  11.60  1.557  1.557  1.405  0.152  0.000  202.3   90.4  111.8    0.0
 1993 298   114  12.90  17.90  10.80  2.450  2.450  2.226  0.224  0.000  204.7   92.7  112.1    0.0
 1993 299   115  27.40  20.00   6.30  5.134  5.134  4.702  0.432  0.000  209.9   97.4  112.5    0.0
 1993 300   116  24.90  22.00   9.00  4.907  4.907  4.516  0.391  0.000  214.8  101.9  112.9    0.0
 1993 301   117  28.20  28.00  11.50  6.112  6.112  5.655  0.457  0.000  220.9  107.5  113.3    0.0
 1993 302   118  15.30  28.40  17.40  3.484  3.484  3.244  0.240  0.000  224.4  110.8  113.6    0.0
 1993 303   119   8.10  22.30  17.50  1.718  1.718  1.606  0.112  0.000  226.1  112.4  113.7    0.0
 1993 304   120   8.10  20.70  15.10  1.651  1.651  1.546  0.105  0.000  227.7  113.9  113.8    0.0
 1993 305   121  25.40  19.10   9.80  4.839  4.839  4.539  0.300  0.000  232.6  118.5  114.1    0.0
 1993 306   122  28.60  24.90   9.40  5.856  5.856  5.499  0.356  0.000  238.4  124.0  114.4    0.0
 1993 307   123  28.20  28.70  12.90  6.218  6.218  5.851  0.367  0.000  244.6  129.8  114.8    0.0
 1993 308   124  28.70  29.00  14.90  6.446  6.446  6.082  0.364  0.000  251.1  135.9  115.2    0.0
 1993 309   125   8.90  21.20  13.80  1.803  1.803  1.705  0.098  0.000  252.9  137.6  115.3    0.0
 1993 310   126  12.90  16.60  10.70  2.392  2.392  2.264  0.128  0.000  255.3  139.9  115.4    0.0
 1993 311   127  28.50  22.70   8.50  5.624  5.624  5.325  0.298  0.000  260.9  145.2  115.7    0.0
 1993 312   128  29.10  27.70   8.60  6.121  6.121  5.800  0.321  0.000  267.0  151.0  116.0    0.0
 1993 313   129  28.70  30.00  12.90  6.418  6.418  6.087  0.331  0.000  273.4  157.1  116.4    0.0
 1993 314   130  22.60  32.30  16.20  5.314  5.314  5.048  0.266  0.000  278.8  162.1  116.6    0.0
 1993 315   131   9.80  28.20  20.20  2.268  2.268  2.158  0.109  0.000  281.0  164.3  116.7    0.0
 1993 316   132  18.70  26.00  17.50  4.135  4.135  3.937  0.197  0.000  285.2  168.2  116.9    0.0
 1993 317   133   8.50  23.70  15.30  1.797  1.797  1.713  0.084  0.000  287.0  169.9  117.0    0.0
 1993 318   134   8.50  19.10  14.90  1.690  1.690  1.612  0.078  0.000  288.6  171.6  117.1    0.0
 1993 319   135   8.60  21.10  15.90  1.769  1.769  1.687  0.082  0.000  290.4  173.2  117.2    0.0
 1993 320   136  10.60  21.80  17.60  2.231  2.231  2.125  0.105  0.000  292.6  175.4  117.3    0.0
 1993 321   137  10.60  20.40  13.50  2.119  2.119  2.016  0.102  0.000  294.8  177.4  117.4    0.0
 1993 322   138  18.70  20.80  12.20  3.715  3.715  3.533  0.182  0.000  298.5  180.9  117.6    0.0
 1993 323   139  29.60  25.10  11.00  6.148  6.148  5.842  0.306  0.000  304.6  186.8  117.9    0.0
 1993 324   140  30.00  27.20  11.70  6.430  6.430  6.105  0.324  0.000  311.1  192.9  118.2    0.0
 1993 325   141  29.90  30.00  13.50  6.716  6.716  6.373  0.343  0.000  317.8  199.2  118.5    0.0
 1993 326   142  28.60  27.40  15.70  6.341  6.341  6.014  0.328  0.000  324.1  205.2  118.9    0.0
 1993 327   143  20.70  28.20  13.80  4.565  4.565  4.327  0.238  0.000  328.7  209.6  119.1    0.0
 1993 328   144  16.20  27.20  19.00  3.676  3.676  3.482  0.194  0.000  332.4  213.1  119.3    0.0
 1993 329   145   9.20  25.20  18.30  2.029  2.029  1.921  0.108  0.000  334.4  215.0  119.4    0.0
 1993 330   146  16.40  21.20  16.40  3.395  3.395  3.213  0.182  0.000  337.8  218.2  119.6    0.0
 1993 331   147  12.80  20.50  14.80  2.592  2.592  2.452  0.140  0.000  340.4  220.6  119.7    0.0
 1993 332   148  23.50  22.20  13.00  4.789  4.789  4.528  0.261  0.000  345.2  225.2  120.0    0.0
 1993 333   149  27.20  26.10  10.30  5.691  5.691  5.378  0.313  0.000  350.9  230.5  120.3    0.0
 1993 334   150   9.80  18.00  14.60  1.918  1.918  1.812  0.106  0.000  352.8  232.4  120.4    0.0
 1993 335   151  29.40  21.90   9.30  5.783  5.783  5.461  0.322  0.000  358.6  237.8  120.7    0.0
 1993 336   152  31.10  28.30  10.40  6.689  6.689  6.315  0.374  0.000  365.2  244.1  121.1    0.0
 1993 337   153  16.80  28.50  19.10  3.873  3.873  3.655  0.218  0.000  369.1  247.8  121.3    0.0
 1993 338   154   9.00  24.80  16.90  1.955  1.955  1.845  0.110  0.000  371.1  249.6  121.4    0.0
 1993 339   155  27.20  21.00  13.50  5.484  5.484  5.173  0.311  0.000  376.6  254.8  121.7    0.0
 1993 340   156  10.90  24.40  13.50  2.293  2.293  2.163  0.131  0.000  378.8  257.0  121.9    0.0
 1993 341   157  20.10  28.00  19.00  4.605  4.605  4.341  0.263  0.000  383.5  261.3  122.1    0.0
 1993 342   158  21.40  28.50  17.80  4.886  4.886  4.606  0.281  0.000  388.3  265.9  122.4    0.0
 1993 343   159  30.00  29.90  16.00  6.866  6.866  6.470  0.396  0.000  395.2  272.4  122.8    0.0
 1993 344   160  26.90  28.00  18.10  6.122  6.122  5.767  0.354  0.000  401.3  278.2  123.2    0.0
 1993 345   161  30.40  30.30  15.50  6.963  6.963  6.558  0.405  0.000  408.3  284.7  123.6    0.0
 1993 346   162  28.20  32.20  19.90  6.810  6.810  6.410  0.400  0.000  415.1  291.1  124.0    0.0
 1993 347   163   9.40  25.40  20.00  2.107  2.107  1.982  0.125  0.000  417.2  293.1  124.1    0.0
 1993 348   164  22.00  27.20  20.30  5.046  5.046  4.742  0.303  0.000  422.3  297.8  124.4    0.0
 1993 349   165   9.10  21.50  15.80  1.883  1.883  1.768  0.115  0.000  424.1  299.6  124.5    0.0
 1993 350   166  28.10  23.10  14.90  5.889  5.889  5.523  0.366  0.000  430.0  305.1  124.9    0.0
 1993 351   167  31.30  28.30  12.90  6.873  6.873  6.436  0.437  0.000  436.9  311.6  125.3    0.0
 1993 352   168  26.60  29.10  16.40  6.057  6.057  5.663  0.394  0.000  443.0  317.2  125.7    0.0
 1993 353   169  29.30  29.90  16.50  6.739  6.739  6.289  0.449  0.000  449.7  323.5  126.2    0.0
 1993 354   170  27.60  21.40  13.60  5.607  5.607  5.223  0.384  0.000  455.3  328.8  126.5    0.0
 1993 355   171  31.80  23.30   8.40  6.333  6.333  5.886  0.448  0.000  461.6  334.6  127.0    0.0
 1993 356   172  29.40  29.30  12.90  6.540  6.540  6.062  0.478  0.000  468.2  340.7  127.5    0.0
 1993 357   173  29.30  32.50  16.50  6.943  6.943  6.420  0.523  0.000  475.1  347.1  128.0    0.0
 1993 358   174  30.60  31.80  18.50  7.303  7.303  6.735  0.569  0.000  482.4  353.9  128.6    0.0
 1993 359   175  20.10  32.40  21.00  4.917  4.917  4.520  0.397  0.000  487.3  358.4  129.0    0.0
 1993 360   176  23.00  29.20  20.60  5.423  5.423  4.968  0.454  0.000  492.8  363.3  129.4    0.0
 1993 361   177   9.10  23.20  19.30  1.985  1.985  1.812  0.173  0.000  494.7  365.2  129.6    0.0
 1993 362   178  23.00  26.50  15.70  5.073  5.073  4.611  0.462  0.000  499.8  369.8  130.0    0.0
 1993 363   179  22.50  21.30  14.60  4.621  4.621  4.176  0.444  0.000  504.4  373.9  130.5    0.0
 1993 364   180  31.30  25.40  11.00  6.570  6.570  5.907  0.663  0.000  511.0  379.8  131.2    0.0
 1993 365   181  31.30  27.90  13.10  6.891  6.891  6.160  0.732  0.000  517.9  386.0  131.9    0.0
 1994 001   182  31.50  28.20  15.80  7.114  7.114  6.308  0.806  0.000  525.0  392.3  132.7    0.0
 1994 002   183  30.40  24.20  12.90  6.405  6.405  5.622  0.783  0.000  531.4  397.9  133.5    0.0
 1994 003   184  31.50  24.90  10.40  6.565  6.565  5.713  0.852  0.000  538.0  403.7  134.3    0.0
 1994 004   185  30.10  27.50  12.70  6.604  6.604  5.697  0.907  0.000  544.6  409.3  135.2    0.0
 1994 005   186  29.60  30.00  15.20  6.825  6.562  5.816  0.746  0.000  551.1  415.2  136.0    0.0
 1994 006   187  12.50  31.30  18.80  3.009  3.009  2.521  0.488  0.000  554.2  417.7  136.5    0.0
 1994 007   188  18.50  30.30  18.80  4.417  4.417  3.615  0.802  0.000  558.6  421.3  137.3    0.0
 1994 008   189  19.30  25.50  18.50  4.369  4.369  3.479  0.890  0.000  562.9  424.8  138.2    0.0
 1994 009   190  30.40  23.60  16.40  6.640  6.640  5.142  1.498  0.000  569.6  429.9  139.7    0.0
 1994 010   191  31.30  24.20  11.20  6.621  6.621  4.985  1.636  0.000  576.2  434.9  141.3    0.0
 1994 011   192  31.30  28.20  11.50  6.968  6.968  5.247  1.722  0.000  583.2  440.2  143.0    0.0
 1994 012   193  28.90  29.20  14.40  6.658  6.458  5.013  1.445  0.000  589.6  445.2  144.5    0.0
 1994 013   194  26.50  28.10  17.00  6.150  6.150  4.630  1.519  0.000  595.8  449.8  146.0    0.0

*DSSAT Cropping System Model Ver. 4.0.2.000               Jul 19, 2016; 16:47:46

*RUN   5        : UYMZ                    
 MODEL          : MZCER040 - Maize           
 EXPERIMENT     : UYMZ0043 MZ    late to create DSS                             
 TREATMENT  1   : UYMZ                    

@YEAR DOY   DAS   SRAA   TMXA   TMNA   EOAA   ETAA   EPAA   ESAA   EFAD   ETAC   EPAC   ESAC   EFAC
 1994 184     0  10.20  15.60  -0.30  1.925  1.798  0.000  1.798  0.000    1.8    0.0    1.8    0.0
 1994 185     1  10.00  12.60   2.20  1.848  1.848  0.000  1.848  0.000    3.6    0.0    3.6    0.0
 1994 186     2   3.70  11.30   1.00  0.661  0.661  0.000  0.661  0.000    4.3    0.0    4.3    0.0
 1994 187     3   3.80  11.50   7.60  0.730  0.730  0.000  0.730  0.000    5.0    0.0    5.0    0.0
 1994 188     4   4.00   8.20   3.90  0.700  0.700  0.000  0.700  0.000    5.7    0.0    5.7    0.0
 1994 189     5   7.60   5.60   2.00  1.244  1.244  0.000  1.244  0.000    7.0    0.0    7.0    0.0
 1994 190     6  11.10   8.60   2.30  1.922  1.922  0.000  1.922  0.000    8.9    0.0    8.9    0.0
 1994 191     7  12.20  10.90  -1.40  2.106  2.106  0.000  2.106  0.000   11.0    0.0   11.0    0.0
[...]
 1994 361   177  24.90  32.20  17.80  6.120  1.628  1.608  0.020  0.000  534.7  371.9  162.8    0.0
 1994 362   178  17.70  33.20  20.00  4.475  1.525  1.508  0.017  0.000  536.2  373.4  162.8    0.0
 1994 363   179  27.40  32.90  20.60  6.950  1.434  1.419  0.014  0.000  537.7  374.9  162.8    0.0
 1994 364   180  26.20  32.10  22.20  6.678  1.353  1.341  0.012  0.000  539.0  376.2  162.8    0.0
 1994 365   181  29.10  33.20  18.60  7.316  1.281  1.271  0.010  0.000  540.3  377.5  162.8    0.0
 1995 001   182  30.60  35.90  20.70  8.357  1.025  1.018  0.008  0.000  541.3  378.5  162.8    0.0

*DSSAT Cropping System Model Ver. 4.0.2.000               Jul 19, 2016; 16:47:46

*RUN   6        : UYMZ                    
 MODEL          : MZCER040 - Maize           
 EXPERIMENT     : UYMZ0043 MZ    late to create DSS                             
 TREATMENT  1   : UYMZ                    

@YEAR DOY   DAS   SRAA   TMXA   TMNA   EOAA   ETAA   EPAA   ESAA   EFAD   ETAC   EPAC   ESAC   EFAC
 1995 184     0  11.60  15.60   6.80  2.352  0.588  0.000  0.588  0.000    0.6    0.0    0.6    0.0
 1995 185     1  10.80  14.80   5.00  2.125  0.557  0.000  0.557  0.000    1.1    0.0    1.1    0.0
 1995 186     2   3.80  25.10  13.40  0.927  0.927  0.000  0.927  0.000    2.1    0.0    2.1    0.0
 1995 187     3  13.20  14.00   4.10  2.543  1.267  0.000  1.267  0.000    3.3    0.0    3.3    0.0
 1995 188     4  13.20  15.70   1.50  2.542  1.024  0.000  1.024  0.000    4.4    0.0    4.4    0.0
 1995 189     5  13.50  18.70   2.00  2.733  0.883  0.000  0.883  0.000    5.2    0.0    5.2    0.0
 1995 190     6  12.60  20.00   5.70  2.691  0.788  0.000  0.788  0.000    6.0    0.0    6.0    0.0
 1995 191     7  13.30  21.00   5.20  2.867  0.719  0.000  0.719  0.000    6.8    0.0    6.8    0.0
 1995 192     8  10.20  23.20   9.70  2.356  2.356  0.000  2.356  0.000    9.1    0.0    9.1    0.0
 1995 193     9   4.90  23.70  16.70  1.207  1.207  0.000  1.207  0.000   10.3    0.0   10.3    0.0
 1995 194    10   4.30  22.40  16.10  1.037  1.037  0.000  1.037  0.000   11.4    0.0   11.4    0.0
 1995 195    11   3.80  16.40  15.40  0.844  0.844  0.000  0.844  0.000   12.2    0.0   12.2    0.0
 1995 196    12   3.90  15.30   8.50  0.800  0.800  0.000  0.800  0.000   13.0    0.0   13.0    0.0
 1995 197    13  13.70  10.40   4.80  2.512  2.512  0.000  2.512  0.000   15.5    0.0   15.5    0.0
 1995 198    14   4.90   7.40   2.90  0.837  0.837  0.000  0.837  0.000   16.3    0.0   16.3    0.0
 1995 199    15   3.90   8.00   6.40  0.700  0.700  0.000  0.700  0.000   17.0    0.0   17.0    0.0
 1995 200    16   4.00  10.00   7.30  0.749  0.749  0.000  0.749  0.000   17.8    0.0   17.8    0.0
 1995 201    17  14.30  11.60   1.60  2.583  2.583  0.000  2.583  0.000   20.4    0.0   20.4    0.0
 1995 202    18  12.80  13.30  -1.20  2.305  2.305  0.001  2.304  0.000   22.7    0.0   22.7    0.0
 1995 203    19  13.90  17.40   1.00  2.733  1.786  0.001  1.785  0.000   24.5    0.0   24.5    0.0
 1995 204    20  12.90  20.00   7.70  2.806  2.358  0.001  2.357  0.000   26.8    0.0   26.8    0.0
 1995 205    21  14.00  26.50  10.20  3.383  1.376  0.004  1.372  0.000   28.2    0.0   28.2    0.0
 1995 206    22  11.40  20.60  13.30  2.625  1.918  0.008  1.910  0.000   30.1    0.0   30.1    0.0
 1995 207    23  10.00  23.80  13.10  2.393  2.393  0.011  2.382  0.000   32.5    0.0   32.5    0.0
 1995 208    24   4.20  20.00  15.00  0.973  0.973  0.006  0.967  0.000   33.5    0.0   33.5    0.0
 1995 209    25  10.60  19.60  12.00  2.380  2.380  0.020  2.360  0.000   35.9    0.1   35.8    0.0
 1995 210    26  12.30  18.00  10.40  2.664  2.664  0.027  2.638  0.000   38.5    0.1   38.5    0.0
 1995 211    27  13.40  13.00   7.00  2.614  1.595  0.030  1.565  0.000   40.1    0.1   40.0    0.0
 1995 212    28   4.30  13.30   7.60  0.848  0.848  0.010  0.838  0.000   41.0    0.1   40.9    0.0
 1995 213    29   4.30  13.80  11.20  0.885  0.885  0.011  0.874  0.000   41.9    0.1   41.7    0.0
 1995 214    30   4.30  11.70   7.60  0.827  0.827  0.013  0.814  0.000   42.7    0.1   42.5    0.0
 1995 215    31  11.50  12.80   3.60  2.158  2.158  0.035  2.123  0.000   44.8    0.2   44.7    0.0
 1995 216    32  15.40   8.50  -0.80  2.561  2.094  0.041  2.053  0.000   46.9    0.2   46.7    0.0
 1995 217    33  15.50  13.40  -1.20  2.793  2.793  0.024  2.769  0.000   49.7    0.2   49.5    0.0
 1995 218    34  14.50  15.50  -0.20  2.733  1.471  0.012  1.459  0.000   51.2    0.3   50.9    0.0
 1995 219    35  14.00  16.00   0.80  2.687  1.126  0.010  1.116  0.000   52.3    0.3   52.1    0.0
 1995 220    36  15.60  18.10   0.60  3.085  0.952  0.011  0.940  0.000   53.3    0.3   53.0    0.0
 1995 221    37   6.20  15.20   5.50  1.233  0.833  0.005  0.828  0.000   54.1    0.3   53.8    0.0
 1995 222    38  13.80  12.40  -0.30  2.471  0.763  0.015  0.748  0.000   54.9    0.3   54.6    0.0
 1995 223    39   4.60  11.50   4.80  0.858  0.691  0.003  0.688  0.000   55.6    0.3   55.3    0.0
 1995 224    40  11.50  21.50  11.20  2.630  0.652  0.011  0.640  0.000   56.2    0.3   55.9    0.0
 1995 225    41   5.60  24.00  13.00  1.341  0.617  0.016  0.601  0.000   56.8    0.3   56.5    0.0
 1995 226    42   4.70  20.00  13.50  1.073  0.593  0.024  0.568  0.000   57.4    0.4   57.1    0.0
 1995 227    43  13.50  13.60   3.60  2.559  0.622  0.081  0.541  0.000   58.0    0.4   57.6    0.0
 1995 228    44  14.80  11.10   1.70  2.642  0.600  0.083  0.517  0.000   58.6    0.5   58.1    0.0
 1995 229    45   7.50  10.50   0.60  1.310  0.529  0.034  0.495  0.000   59.2    0.6   58.6    0.0
 1995 230    46  14.30  12.00   2.30  2.612  0.525  0.048  0.477  0.000   59.7    0.6   59.1    0.0
 1995 231    47  16.40  13.20  -0.70  2.958  0.509  0.049  0.460  0.000   60.2    0.6   59.6    0.0
 1995 232    48  15.80  15.00  -1.10  2.924  0.473  0.029  0.445  0.000   60.7    0.7   60.0    0.0
 1995 233    49  11.10  19.70   3.20  2.304  0.444  0.013  0.431  0.000   61.1    0.7   60.4    0.0
 1995 234    50  16.60  23.00   6.30  3.707  0.454  0.035  0.419  0.000   61.6    0.7   60.9    0.0
 1995 235    51  16.70  31.80  14.30  4.421  0.491  0.084  0.407  0.000   62.1    0.8   61.3    0.0
 1995 236    52  14.60  30.40  19.30  3.940  0.528  0.131  0.397  0.000   62.6    0.9   61.7    0.0
 1995 237    53   8.70  29.00  18.30  2.290  0.495  0.108  0.387  0.000   63.1    1.0   62.0    0.0
 1995 238    54  11.70  30.40  18.30  3.123  0.560  0.182  0.378  0.000   63.7    1.2   62.4    0.0
 1995 239    55  12.20  28.30  15.20  3.099  0.605  0.236  0.369  0.000   64.3    1.5   62.8    0.0
 1995 240    56   7.90  20.00  13.40  1.781  0.537  0.176  0.361  0.000   64.8    1.6   63.2    0.0
 1995 241    57   6.50  24.60   9.70  1.502  0.528  0.175  0.354  0.000   65.3    1.8   63.5    0.0
 1995 242    58  17.50  20.00  11.00  3.844  0.856  0.509  0.347  0.000   66.2    2.3   63.9    0.0
 1995 243    59  12.20  25.30   9.40  2.822  0.765  0.425  0.340  0.000   66.9    2.8   64.2    0.0
 1995 244    60  13.10  20.60   6.00  2.756  0.814  0.480  0.334  0.000   67.8    3.2   64.5    0.0
 1995 245    61  19.80  15.20   3.00  3.735  1.031  0.703  0.328  0.000   68.8    3.9   64.9    0.0
 1995 246    62  18.60  18.10   1.60  3.619  0.967  0.644  0.322  0.000   69.8    4.6   65.2    0.0
 1995 247    63  14.80  22.20   7.00  3.221  0.810  0.493  0.317  0.000   70.6    5.1   65.5    0.0
 1995 248    64  18.00  28.80  13.60  4.477  1.083  0.771  0.312  0.000   71.7    5.8   65.8    0.0
 1995 249    65  19.60  30.80  14.20  4.977  1.389  1.082  0.307  0.000   73.0    6.9   66.1    0.0
 1995 250    66  19.10  32.00  13.60  4.856  1.606  1.303  0.302  0.000   74.6    8.2   66.4    0.0
 1995 251    67   8.00  24.30  15.80  1.877  1.877  0.603  1.274  0.000   76.5    8.8   67.7    0.0
 1995 252    68   5.90  18.40  12.90  1.248  1.248  0.439  0.809  0.000   77.8    9.3   68.5    0.0
 1995 253    69   5.90  16.90  12.90  1.220  1.220  0.453  0.766  0.000   79.0    9.7   69.3    0.0
 1995 254    70  12.10  20.00   9.10  2.517  2.517  0.961  1.555  0.000   81.5   10.7   70.8    0.0
 1995 255    71  20.20  12.30   3.30  3.540  3.540  1.402  2.138  0.000   85.0   12.1   73.0    0.0
 1995 256    72   6.10  10.10   7.50  1.082  1.082  0.408  0.674  0.000   86.1   12.5   73.6    0.0
 1995 257    73   7.50  13.90   7.40  1.409  1.409  0.533  0.876  0.000   87.5   13.0   74.5    0.0
 1995 258    74  20.00  19.00   6.60  4.009  4.009  1.542  2.467  0.000   91.5   14.6   77.0    0.0
 1995 259    75  21.50  21.80   7.40  4.500  4.210  1.792  2.418  0.000   95.8   16.4   79.4    0.0
 1995 260    76  18.90  26.00   8.80  4.214  4.214  1.765  2.448  0.000  100.0   18.1   81.8    0.0
 1995 261    77  21.10  24.40   8.60  4.582  3.706  2.054  1.651  0.000  103.7   20.2   83.5    0.0
 1995 262    78  19.10  13.80   5.50  3.462  2.851  1.657  1.194  0.000  106.5   21.8   84.7    0.0
 1995 263    79  21.30  14.10   1.50  3.718  2.791  1.806  0.985  0.000  109.3   23.6   85.7    0.0
 1995 264    80  21.40  18.00   3.10  4.070  2.558  1.700  0.858  0.000  111.9   25.3   86.5    0.0
 1995 265    81   6.50  14.50   8.10  1.235  1.235  0.500  0.735  0.000  113.1   25.8   87.3    0.0
 1995 266    82  14.50  17.90   8.90  2.909  2.458  1.215  1.243  0.000  115.6   27.1   88.5    0.0
 1995 267    83  18.90  22.20   8.10  3.978  2.753  1.742  1.012  0.000  118.3   28.8   89.5    0.0
 1995 268    84  19.80  23.30   9.00  4.244  4.244  1.969  2.275  0.000  122.6   30.8   91.8    0.0
 1995 269    85  18.90  23.00  12.90  4.153  3.178  2.044  1.134  0.000  125.7   32.8   92.9    0.0
 1995 270    86  10.40  17.60   8.30  2.033  2.018  1.067  0.950  0.000  127.8   33.9   93.9    0.0
 1995 271    87   6.90  15.20   7.90  1.296  1.296  0.699  0.596  0.000  129.1   34.6   94.5    0.0
 1995 272    88   6.80  13.70  11.10  1.287  1.287  0.708  0.579  0.000  130.3   35.3   95.1    0.0
 1995 273    89  17.50  19.40  11.40  3.586  2.924  2.017  0.908  0.000  133.3   37.3   96.0    0.0
 1995 274    90  17.60  20.80   8.50  3.570  2.887  2.081  0.805  0.000  136.2   39.4   96.8    0.0
 1995 275    91   6.90  22.50  12.80  1.481  1.481  0.890  0.591  0.000  137.6   40.3   97.4    0.0
 1995 276    92   7.00  18.00  12.60  1.410  1.410  0.878  0.533  0.000  139.0   41.2   97.9    0.0
 1995 277    93  11.50  22.00  14.20  2.467  2.467  1.579  0.889  0.000  141.5   42.7   98.8    0.0
 1995 278    94   8.40  21.80  15.40  1.810  1.810  1.200  0.610  0.000  143.3   43.9   99.4    0.0
 1995 279    95  12.40  23.80  16.50  2.754  2.754  1.879  0.875  0.000  146.1   45.8  100.3    0.0
 1995 280    96  20.30  22.60  13.60  4.329  4.329  3.024  1.305  0.000  150.4   48.8  101.6    0.0
 1995 281    97  24.00  21.10  10.70  4.885  4.885  3.496  1.389  0.000  155.3   52.3  103.0    0.0
 1995 282    98  24.90  18.30   7.80  4.745  4.745  3.463  1.283  0.000  160.0   55.8  104.2    0.0
 1995 283    99  25.70  20.20   7.10  4.990  4.990  3.682  1.307  0.000  165.0   59.5  105.6    0.0
 1995 284   100  22.80  22.00   7.20  4.533  4.533  3.387  1.146  0.000  169.6   62.9  106.7    0.0
 1995 285   101   7.40  16.80  11.50  1.423  1.423  1.078  0.345  0.000  171.0   63.9  107.0    0.0
 1995 286   102  21.40  15.00   6.90  3.836  3.836  2.941  0.895  0.000  174.8   66.9  107.9    0.0
 1995 287   103  25.90  20.90   4.40  4.929  4.929  3.799  1.130  0.000  179.8   70.7  109.1    0.0
 1995 288   104  25.80  26.30   9.70  5.518  5.518  4.251  1.267  0.000  185.3   74.9  110.3    0.0
 1995 289   105  25.60  23.00   9.90  5.251  5.251  4.120  1.130  0.000  190.5   79.1  111.5    0.0
 1995 290   106  16.60  19.00   6.00  3.111  3.111  2.477  0.635  0.000  193.6   81.5  112.1    0.0
 1995 291   107  26.30  22.20   7.10  5.197  5.024  4.167  0.857  0.000  198.7   85.7  113.0    0.0
 1995 292   108  19.20  22.80   8.30  3.860  3.860  3.126  0.734  0.000  202.5   88.8  113.7    0.0
 1995 293   109  25.20  22.10   8.80  5.035  5.035  4.123  0.913  0.000  207.6   92.9  114.6    0.0
 1995 294   110  25.70  23.00   6.00  5.064  5.064  4.188  0.876  0.000  212.6   97.1  115.5    0.0
 1995 295   111  26.90  26.10  11.10  5.752  5.752  4.798  0.955  0.000  218.4  101.9  116.4    0.0
 1995 296   112  26.20  30.10  12.80  5.945  5.945  5.023  0.922  0.000  224.3  107.0  117.4    0.0
 1995 297   113  24.80  31.00  15.20  5.778  5.778  4.957  0.821  0.000  230.1  111.9  118.2    0.0
 1995 298   114  10.30  24.70  18.10  2.278  2.278  1.985  0.293  0.000  232.4  113.9  118.5    0.0
 1995 299   115   7.90  18.30  10.80  1.515  1.515  1.329  0.186  0.000  233.9  115.2  118.7    0.0
 1995 300   116  11.40  14.40   9.10  2.035  2.035  1.800  0.235  0.000  235.9  117.0  118.9    0.0
 1995 301   117  27.50  18.00   5.80  5.005  5.005  4.456  0.549  0.000  240.9  121.5  119.4    0.0
 1995 302   118  27.50  17.40   5.30  4.934  4.934  4.420  0.514  0.000  245.9  125.9  120.0    0.0
 1995 303   119  27.70  19.70   6.20  5.176  5.176  4.654  0.522  0.000  251.0  130.6  120.5    0.0
 1995 304   120  27.80  23.80  10.10  5.674  5.674  5.126  0.548  0.000  256.7  135.7  121.0    0.0
 1995 305   121  27.90  27.00  12.10  6.017  6.017  5.471  0.546  0.000  262.7  141.2  121.6    0.0
 1995 306   122  27.80  28.20  14.70  6.201  6.201  5.675  0.526  0.000  268.9  146.8  122.1    0.0
 1995 307   123  27.30  30.10  15.70  6.266  6.266  5.769  0.497  0.000  275.2  152.6  122.6    0.0
 1995 308   124  27.90  33.00  18.10  6.723  6.723  6.222  0.502  0.000  281.9  158.8  123.1    0.0
 1995 309   125  28.20  33.20  21.00  6.947  6.947  6.460  0.487  0.000  288.9  165.3  123.6    0.0
 1995 310   126  18.70  31.50  19.50  4.474  4.474  4.178  0.296  0.000  293.3  169.5  123.9    0.0
 1995 311   127   8.40  22.80  18.90  1.812  1.812  1.697  0.115  0.000  295.1  171.2  124.0    0.0
 1995 312   128   8.70  22.80  18.60  1.872  1.872  1.753  0.119  0.000  297.0  172.9  124.1    0.0
 1995 313   129   8.80  24.10  18.00  1.914  1.914  1.793  0.121  0.000  298.9  174.7  124.2    0.0
 1995 314   130  21.60  23.10  14.80  4.524  4.524  4.238  0.286  0.000  303.5  178.9  124.5    0.0
 1995 315   131  27.10  25.00  11.80  5.668  5.668  5.314  0.354  0.000  309.1  184.3  124.9    0.0
 1995 316   132  18.50  22.40  11.70  3.742  3.742  3.510  0.232  0.000  312.9  187.8  125.1    0.0
 1995 317   133  26.90  24.80  11.70  5.607  5.607  5.261  0.346  0.000  318.5  193.0  125.5    0.0
 1995 318   134  23.50  25.80  15.80  5.124  5.124  4.810  0.315  0.000  323.6  197.8  125.8    0.0
 1995 319   135  21.10  25.60  16.20  4.604  4.604  4.325  0.279  0.000  328.2  202.2  126.0    0.0
 1995 320   136  13.80  23.80  13.80  2.891  2.891  2.711  0.180  0.000  331.1  204.9  126.2    0.0
 1995 321   137  20.50  22.90  12.70  4.209  4.209  3.940  0.269  0.000  335.3  208.8  126.5    0.0
 1995 322   138  27.80  22.50  13.00  5.695  5.695  5.324  0.372  0.000  341.0  214.1  126.9    0.0
 1995 323   139  29.10  24.30  11.30  6.012  6.012  5.613  0.400  0.000  347.0  219.7  127.3    0.0
 1995 324   140  29.80  25.00  13.00  6.299  6.299  5.872  0.426  0.000  353.3  225.6  127.7    0.0
 1995 325   141  20.50  28.20  13.90  4.535  4.535  4.223  0.312  0.000  357.8  229.8  128.0    0.0
 1995 326   142  12.90  26.90  19.20  2.928  2.928  2.724  0.205  0.000  360.8  232.6  128.2    0.0
 1995 327   143  18.70  24.30  17.20  4.056  4.056  3.768  0.287  0.000  364.8  236.3  128.5    0.0
 1995 328   144  22.60  25.10  13.80  4.816  4.816  4.471  0.346  0.000  369.6  240.8  128.8    0.0
 1995 329   145  22.30  26.00  12.20  4.743  4.743  4.399  0.344  0.000  374.4  245.2  129.2    0.0
 1995 330   146  27.10  28.60  17.50  6.194  6.194  5.739  0.455  0.000  380.6  250.9  129.6    0.0
 1995 331   147  28.80  20.10  12.30  5.694  5.694  5.272  0.422  0.000  386.3  256.2  130.1    0.0
 1995 332   148  30.10  24.40   7.40  6.032  6.032  5.580  0.452  0.000  392.3  261.8  130.5    0.0
 1995 333   149  31.00  27.00  12.80  6.709  6.709  6.202  0.507  0.000  399.0  268.0  131.0    0.0
 1995 334   150  28.80  32.10  13.30  6.637  6.637  6.131  0.506  0.000  405.7  274.1  131.5    0.0
 1995 335   151  12.70  26.80  18.10  2.858  2.858  2.640  0.218  0.000  408.5  276.8  131.7    0.0
 1995 336   152  22.60  29.80  17.60  5.242  5.242  4.839  0.403  0.000  413.8  281.6  132.1    0.0
 1995 337   153  27.90  29.50  16.20  6.383  6.383  5.888  0.494  0.000  420.1  287.5  132.6    0.0
 1995 338   154  30.30  31.00  16.30  7.055  7.055  6.503  0.552  0.000  427.2  294.0  133.2    0.0
 1995 339   155  27.00  32.70  17.20  6.448  6.448  5.937  0.511  0.000  433.6  299.9  133.7    0.0
 1995 340   156  30.30  33.40  18.30  7.349  7.320  6.757  0.563  0.000  441.0  306.7  134.3    0.0
 1995 341   157  23.00  33.80  14.20  5.441  5.441  4.995  0.446  0.000  446.4  311.7  134.7    0.0
 1995 342   158  30.30  23.70  13.40  6.337  6.337  5.807  0.530  0.000  452.7  317.5  135.2    0.0
 1995 343   159  31.20  25.50   8.40  6.404  6.404  5.855  0.548  0.000  459.1  323.3  135.8    0.0
 1995 344   160  31.20  29.50   9.50  6.787  6.619  6.023  0.596  0.000  465.8  329.4  136.4    0.0
 1995 345   161  25.30  30.90  10.80  5.654  5.247  4.737  0.510  0.000  471.0  334.1  136.9    0.0
 1995 346   162  31.40  26.40   9.20  6.567  4.531  3.921  0.609  0.000  475.5  338.0  137.5    0.0
 1995 347   163  31.10  32.00  11.50  7.082  4.040  3.356  0.684  0.000  479.6  341.4  138.2    0.0
 1995 348   164  30.60  29.70  13.30  6.887  3.639  2.936  0.703  0.000  483.2  344.3  138.9    0.0
 1995 349   165  28.90  32.90  10.10  6.589  3.325  2.611  0.714  0.000  486.5  346.9  139.6    0.0
 1995 350   166  26.30  37.20  18.40  7.341  3.198  2.352  0.846  0.000  489.7  349.3  140.5    0.0
 1995 351   167  31.20  34.70  16.80  7.637  3.044  2.129  0.916  0.000  492.8  351.4  141.4    0.0
 1995 352   168  28.80  38.30  20.80  8.657  2.318  1.947  0.371  0.000  495.1  353.4  141.7    0.0
 1995 353   169  31.40  33.40  18.90  7.715  1.819  1.802  0.016  0.000  496.9  355.2  141.8    0.0
 1995 354   170  31.40  34.90  14.30  7.598  1.691  1.678  0.014  0.000  498.6  356.8  141.8    0.0
 1995 355   171  24.20  36.30  22.10  6.654  1.581  1.569  0.011  0.000  500.2  358.4  141.8    0.0
 1995 356   172  18.80  29.20  20.00  4.470  2.259  1.475  0.784  0.000  502.5  359.9  142.6    0.0
 1995 357   173  10.20  22.70  19.50  2.246  2.246  1.831  0.415  0.000  504.7  361.7  143.0    0.0
 1995 358   174   9.30  23.40  20.00  2.075  2.075  1.679  0.396  0.000  506.8  363.4  143.4    0.0
 1995 359   175  10.90  25.50  18.10  2.458  2.458  1.973  0.485  0.000  509.2  365.4  143.9    0.0
 1995 360   176  31.90  27.60  16.00  7.259  7.259  5.778  1.481  0.000  516.5  371.1  145.3    0.0
 1995 361   177  31.10  27.00  14.60  6.959  6.959  5.489  1.470  0.000  523.4  376.6  146.8    0.0
 1995 362   178  31.40  27.90  14.80  7.119  7.119  5.560  1.558  0.000  530.6  382.2  148.4    0.0
 1995 363   179  30.70  29.00  15.10  7.074  6.674  5.465  1.210  0.000  537.2  387.7  149.6    0.0
 1995 364   180  31.30  28.90  14.90  7.203  7.203  5.496  1.707  0.000  544.4  393.2  151.3    0.0
 1995 365   181  29.60  28.00  15.00  6.757  6.757  5.085  1.673  0.000  551.2  398.2  153.0    0.0
 1996 001   182  31.30  29.40  14.00  7.218  6.670  5.349  1.320  0.000  557.9  403.6  154.3    0.0
 1996 002   183  31.30  33.00  17.60  7.729  6.686  5.634  1.051  0.000  564.6  409.2  155.3    0.0
 1996 003   184  30.40  35.00  20.90  7.861  6.530  5.629  0.901  0.000  571.1  414.9  156.2    0.0
 1996 004   185  15.90  28.20  21.90  3.860  3.860  2.712  1.148  0.000  574.9  417.6  157.4    0.0
 1996 005   186  29.60  28.70  19.20  7.098  6.453  4.886  1.568  0.000  581.4  422.4  159.0    0.0
 1996 006   187  31.50  26.00  14.60  7.069  7.069  4.866  2.203  0.000  588.5  427.3  161.2    0.0
 1996 007   188  31.30  28.50  12.90  7.138  6.465  4.913  1.552  0.000  594.9  432.2  162.7    0.0
 1996 008   189  31.30  29.20  15.10  7.319  6.157  5.002  1.156  0.000  601.1  437.2  163.9    0.0
