*WATER BALANCE OUTPUT FILE

*DSSAT Cropping System Model Ver. 4.0.2.000               Jul 19, 2016; 16:47:46

*RUN   1        : UYMZ                    
 MODEL          : MZCER040 - Maize           
 EXPERIMENT     : UYMZ0043 MZ    late to create DSS                             
 TREATMENT  1   : UYMZ                    


     WATER BALANCE PARAMETERS
     ========================                  --mm--

     Soil H20 (start) on Year/day 1990/184     490.84
     Soil H20 (final) on Year/day 1991/009     470.38
     Effective Irrigation                        0.00
     Precipitation                             701.60
     Drainage                                  121.06
     Runoff                                      5.84
     Soil Evaporation                          166.36
     Transpiration                             428.80
     Potential ET                              728.35

     Final Balance                             0.0000


*DSSAT Cropping System Model Ver. 4.0.2.000               Jul 19, 2016; 16:47:46

*RUN   2        : UYMZ                    
 MODEL          : MZCER040 - Maize           
 EXPERIMENT     : UYMZ0043 MZ    late to create DSS                             
 TREATMENT  1   : UYMZ                    


     WATER BALANCE PARAMETERS
     ========================                  --mm--

     Soil H20 (start) on Year/day 1991/184     490.84
     Soil H20 (final) on Year/day 1992/006     518.41
     Effective Irrigation                        0.00
     Precipitation                             934.50
     Drainage                                  295.71
     Runoff                                     23.50
     Soil Evaporation                          185.26
     Transpiration                             402.46
     Potential ET                              651.43

     Final Balance                             0.0001


*DSSAT Cropping System Model Ver. 4.0.2.000               Jul 19, 2016; 16:47:46

*RUN   3        : UYMZ                    
 MODEL          : MZCER040 - Maize           
 EXPERIMENT     : UYMZ0043 MZ    late to create DSS                             
 TREATMENT  1   : UYMZ                    


     WATER BALANCE PARAMETERS
     ========================                  --mm--

     Soil H20 (start) on Year/day 1992/184     490.84
     Soil H20 (final) on Year/day 1993/014     504.42
     Effective Irrigation                        0.00
     Precipitation                             541.30
     Drainage                                    0.00
     Runoff                                     17.37
     Soil Evaporation                          202.76
     Transpiration                             307.58
     Potential ET                              768.60

     Final Balance                             0.0002


*DSSAT Cropping System Model Ver. 4.0.2.000               Jul 19, 2016; 16:47:46

*RUN   4        : UYMZ                    
 MODEL          : MZCER040 - Maize           
 EXPERIMENT     : UYMZ0043 MZ    late to create DSS                             
 TREATMENT  1   : UYMZ                    


     WATER BALANCE PARAMETERS
     ========================                  --mm--

     Soil H20 (start) on Year/day 1993/184     490.84
     Soil H20 (final) on Year/day 1994/013     499.88
     Effective Irrigation                        0.00
     Precipitation                             723.40
     Drainage                                  106.04
     Runoff                                     12.54
     Soil Evaporation                          145.98
     Transpiration                             449.80
     Potential ET                              692.01

     Final Balance                            -0.0003


*DSSAT Cropping System Model Ver. 4.0.2.000               Jul 19, 2016; 16:47:46

*RUN   5        : UYMZ                    
 MODEL          : MZCER040 - Maize           
 EXPERIMENT     : UYMZ0043 MZ    late to create DSS                             
 TREATMENT  1   : UYMZ                    


     WATER BALANCE PARAMETERS
     ========================                  --mm--

     Soil H20 (start) on Year/day 1994/184     490.84
     Soil H20 (final) on Year/day 1995/001     368.34
     Effective Irrigation                        0.00
     Precipitation                             644.60
     Drainage                                  188.34
     Runoff                                     37.44
     Soil Evaporation                          162.82
     Transpiration                             378.50
     Potential ET                              675.71

     Final Balance                             0.0002


*DSSAT Cropping System Model Ver. 4.0.2.000               Jul 19, 2016; 16:47:46

*RUN   6        : UYMZ                    
 MODEL          : MZCER040 - Maize           
 EXPERIMENT     : UYMZ0043 MZ    late to create DSS                             
 TREATMENT  1   : UYMZ                    


     WATER BALANCE PARAMETERS
     ========================                  --mm--

     Soil H20 (start) on Year/day 1995/184     490.84
     Soil H20 (final) on Year/day 1996/008     402.67
     Effective Irrigation                        0.00
     Precipitation                             555.80
     Drainage                                   41.91
     Runoff                                      0.96
     Soil Evaporation                          163.86
     Transpiration                             437.23
     Potential ET                              747.95

     Final Balance                             0.0001

