*SOIL N BALANCE - CERES SOIL N&C ROUTINES

*DSSAT Cropping System Model Ver. 4.0.2.000               Aug 15, 2016; 15:39:25

*RUN   1        : UYMZ                    
 MODEL          : MZCER040 - Maize           
 EXPERIMENT     : UYMZ0201 MZ    late to create DSS                             
 TREATMENT  1   : UYMZ                    



                                         INITIAL Year/Doy      FINAL Year/Doy
                                                 1990/196            1991/009
SOIL N BALANCE                                  -----------kg N/ha-----------

   Soil Humus N                                  16646.04            16542.13
   Soil Litter N                                     0.00               10.61
   N in Surface Residue                              0.00                0.00
   Soil NO3                                         74.81                5.89
   Soil NH4                                         23.95                7.32
   Soil Urea                                         0.00                0.00

   Added to / Removed from Soil:
   N in Harvest Residues from Previous Crop          0.00
   N from Organic Applications                       0.00
   N from senesced plant matter                     14.95
   Fertilizer N                                      6.00
   Leached NO3                                                           4.41
   N Denitrified                                                         0.66
   N Uptake From Soil                                                  193.88
   Ammonia volatilization                                                0.86

   Total N balance                               16765.75            16765.75

================================================================================

*DSSAT Cropping System Model Ver. 4.0.2.000               Aug 15, 2016; 15:39:25

*RUN   2        : UYMZ                    
 MODEL          : MZCER040 - Maize           
 EXPERIMENT     : UYMZ0201 MZ    late to create DSS                             
 TREATMENT  1   : UYMZ                    



                                         INITIAL Year/Doy      FINAL Year/Doy
                                                 1991/196            1992/006
SOIL N BALANCE                                  -----------kg N/ha-----------

   Soil Humus N                                  16646.04            16543.86
   Soil Litter N                                     0.00               12.44
   N in Surface Residue                              0.00                0.00
   Soil NO3                                         74.81                6.66
   Soil NH4                                         23.95                8.29
   Soil Urea                                         0.00                0.00

   Added to / Removed from Soil:
   N in Harvest Residues from Previous Crop          0.00
   N from Organic Applications                       0.00
   N from senesced plant matter                     18.44
   Fertilizer N                                      6.00
   Leached NO3                                                          21.57
   N Denitrified                                                         2.59
   N Uptake From Soil                                                  172.39
   Ammonia volatilization                                                1.44

   Total N balance                               16769.24            16769.25

================================================================================

*DSSAT Cropping System Model Ver. 4.0.2.000               Aug 15, 2016; 15:39:25

*RUN   3        : UYMZ                    
 MODEL          : MZCER040 - Maize           
 EXPERIMENT     : UYMZ0201 MZ    late to create DSS                             
 TREATMENT  1   : UYMZ                    



                                         INITIAL Year/Doy      FINAL Year/Doy
                                                 1992/196            1993/014
SOIL N BALANCE                                  -----------kg N/ha-----------

   Soil Humus N                                  16646.04            16567.09
   Soil Litter N                                     0.00               18.11
   N in Surface Residue                              0.00                0.00
   Soil NO3                                         74.81                5.95
   Soil NH4                                         23.95                6.25
   Soil Urea                                         0.00                0.00

   Added to / Removed from Soil:
   N in Harvest Residues from Previous Crop          0.00
   N from Organic Applications                       0.00
   N from senesced plant matter                     19.40
   Fertilizer N                                      6.00
   Leached NO3                                                           0.00
   N Denitrified                                                         0.01
   N Uptake From Soil                                                  171.94
   Ammonia volatilization                                                0.85

   Total N balance                               16770.20            16770.20
