*GROWTH ASPECTS OUTPUT FILE

*DSSAT Cropping System Model Ver. 4.0.2.000               Aug 23, 2016; 19:11:30

*RUN   1        : UYSB                    
 MODEL          : CRGRO040 - Soybean         
 EXPERIMENT     : UYSB0386 SB    late to create DSS                             
 TREATMENT  1   : UYSB                    

@YEAR DOY   DAS   DAP   L#SD   GSTD   LAID   LWAD   SWAD   GWAD   RWAD   CWAD   G#AD    GWGD   HIAD   PWAD   P#AD   WSPD   WSGD   NSTD   EWSD    LN%D   SH%D   HIPD   PWDD   PWTD   SLAD   CHTD   CWID   NWAD   RDPD   RL1D   RL2D   RL3D   RL4D   RL5D   RL6D   RL7D   RL8D   RL9D   RL10   SNW0C   SNW1C
 1999 235     3     0    0.0      0   0.00      0      0      0      0      0      0     0.0  0.000      0      0  0.000  0.000  0.000  0.000    0.00   0.00   0.00      0      0    0.0   0.00   0.00    0.0   0.00   0.00   0.00   0.00   0.00   0.00   0.00   0.00   0.00   0.00   0.00       0       0
 1999 236     4     1    0.0      0   0.00      0      0      0      0      0      0     0.0  0.000      0      0  0.000  0.000  0.000  0.000    0.00   0.00   0.00      0      0    0.0   0.00   0.00    0.0   0.00   0.00   0.00   0.00   0.00   0.00   0.00   0.00   0.00   0.00   0.00       0       0
 1999 237     5     2    0.0      0   0.00      0      0      0      0      0      0     0.0  0.000      0      0  0.000  0.000  0.000  0.000    0.00   0.00   0.00      0      0    0.0   0.00   0.00    0.0   0.00   0.00   0.00   0.00   0.00   0.00   0.00   0.00   0.00   0.00   0.00       0       0
 1999 238     6     3    0.0      0   0.00      0      0      0      0      0      0     0.0  0.000      0      0  0.000  0.000  0.000  0.000    0.00   0.00   0.00      0      0    0.0   0.00   0.00    0.0   0.00   0.00   0.00   0.00   0.00   0.00   0.00   0.00   0.00   0.00   0.00       0       0
 1999 239     7     4    0.0      0   0.00      0      0      0      0      0      0     0.0  0.000      0      0  0.000  0.000  0.000  0.000    0.00   0.00   0.00      0      0    0.0   0.00   0.00    0.0   0.00   0.00   0.00   0.00   0.00   0.00   0.00   0.00   0.00   0.00   0.00       0       0
 1999 240     8     5    0.0      0   0.00      0      0      0      0      0      0     0.0  0.000      0      0  0.000  0.000  0.000  0.000    0.00   0.00   0.00      0      0    0.0   0.00   0.00    0.0   0.00   0.00   0.00   0.00   0.00   0.00   0.00   0.00   0.00   0.00   0.00       0       0
 1999 241     9     6    0.0      0   0.00      0      0      0      0      0      0     0.0  0.000      0      0  0.000  0.000  0.000  0.000    0.00   0.00   0.00      0      0    0.0   0.00   0.00    0.0   0.00   0.00   0.00   0.00   0.00   0.00   0.00   0.00   0.00   0.00   0.00       0       0
 1999 242    10     7    0.0      0   0.00      0      0      0      0      0      0     0.0  0.000      0      0  0.000  0.000  0.000  0.000    0.00   0.00   0.00      0      0    0.0   0.00   0.00    0.0   0.00   0.00   0.00   0.00   0.00   0.00   0.00   0.00   0.00   0.00   0.00       0       0
 1999 243    11     8    0.0      0   0.00      0      0      0      0      0      0     0.0  0.000      0      0  0.000  0.000  0.000  0.000    0.00   0.00   0.00      0      0    0.0   0.00   0.00    0.0   0.00   0.00   0.00   0.00   0.00   0.00   0.00   0.00   0.00   0.00   0.00       0       0
 1999 244    12     9    0.0      0   0.00      0      0      0      0      0      0     0.0  0.000      0      0  0.000  0.000  0.000  0.000    0.00   0.00   0.00      0      0    0.0   0.00   0.00    0.0   0.00   0.00   0.00   0.00   0.00   0.00   0.00   0.00   0.00   0.00   0.00       0       0
 1999 245    13    10    0.0      0   0.00      0      0      0      0      0      0     0.0  0.000      0      0  0.000  0.000  0.000  0.000    0.00   0.00   0.00      0      0    0.0   0.00   0.00    0.0   0.00   0.00   0.00   0.00   0.00   0.00   0.00   0.00   0.00   0.00   0.00       0       0
 1999 246    14    11    0.0      0   0.01      3      1      0      4      4      0     0.0  0.000      0      0  0.000  0.000  0.000  0.000    5.70   0.00   0.00      0      0  193.0   0.03   0.03    0.9   0.30   0.04   0.04   0.02   0.00   0.00   0.00   0.00   0.00   0.00   0.00       0       0
 1999 247    15    12    0.1      0   0.01      3      1      0      4      4      0     0.0  0.000      0      0  0.000  0.000  0.000  0.000    5.70   0.00   0.00      0      0  198.9   0.03   0.03    0.9   0.36   0.04   0.04   0.02   0.00   0.00   0.00   0.00   0.00   0.00   0.00       0       0
 1999 248    16    13    0.2      0   0.01      3      1      0      4      4      0     0.0  0.000      0      0  0.000  0.000  0.000  0.000    5.70   0.00   0.00      0      0  209.0   0.03   0.03    0.8   0.43   0.04   0.04   0.03   0.00   0.00   0.00   0.00   0.00   0.00   0.00       0       0
 1999 249    17    14    0.3      0   0.01      3      1      0      4      4      0     0.0  0.000      0      0  0.000  0.000  0.000  0.000    5.70   0.00   0.00      0      0  218.9   0.04   0.04    0.8   0.53   0.04   0.04   0.03   0.00   0.00   0.00   0.00   0.00   0.00   0.00       0       0
 1999 250    18    15    0.3      0   0.01      4      1      0      4      4      0     0.0  0.000      0      0  0.000  0.000  0.000  0.000    5.71   0.00   0.00      0      0  223.5   0.04   0.04    0.8   0.59   0.04   0.04   0.03   0.00   0.00   0.00   0.00   0.00   0.00   0.00       0       0
 1999 251    19    16    0.4      0   0.01      4      1      0      5      5      0     0.0  0.000      0      0  0.000  0.000  0.000  0.000    5.71   0.00   0.00      0      0  220.6   0.04   0.04    0.8   0.63   0.04   0.04   0.03   0.00   0.00   0.00   0.00   0.00   0.00   0.00       0       0
 1999 252    20    17    0.4      0   0.01      4      1      0      5      5      0     0.0  0.000      0      0  0.000  0.000  0.000  0.000    5.71   0.00   0.00      0      0  216.5   0.04   0.04    0.8   0.67   0.05   0.05   0.03   0.01   0.00   0.00   0.00   0.00   0.00   0.00       0       0
 1999 253    21    18    0.5      0   0.01      4      1      0      6      5      0     0.0  0.000      0      0  0.000  0.000  0.000  0.000    5.71   0.00   0.00      0      0  212.5   0.04   0.04    0.8   0.70   0.05   0.05   0.04   0.01   0.00   0.00   0.00   0.00   0.00   0.00       0       0
 1999 254    22    19    0.5      0   0.01      4      1      0      6      6      0     0.0  0.000      0      0  0.000  0.000  0.000  0.000    5.71   0.00   0.00      0      0  209.9   0.04   0.04    0.7   0.72   0.05   0.05   0.04   0.01   0.00   0.00   0.00   0.00   0.00   0.00       0       0
 1999 255    23    20    0.5      0   0.01      5      1      0      7      6      0     0.0  0.000      0      0  0.000  0.000  0.000  0.000    5.71   0.00   0.00      0      0  209.0   0.04   0.04    0.8   0.77   0.05   0.05   0.04   0.01   0.01   0.00   0.00   0.00   0.00   0.00       0       0
 1999 256    24    21    0.6      0   0.01      5      1      0      7      6      0     0.0  0.000      0      0  0.000  0.000  0.000  0.000    5.71   0.00   0.00      0      0  214.3   0.04   0.04    0.8   0.85   0.06   0.06   0.04   0.01   0.01   0.00   0.00   0.00   0.00   0.00       0       1
 1999 257    25    22    0.7      0   0.01      5      2      0      8      7      0     0.0  0.000      0      0  0.000  0.000  0.000  0.000    5.71   0.00   0.00      0      0  212.8   0.05   0.05    0.8   0.90   0.06   0.06   0.05   0.01   0.01   0.00   0.00   0.00   0.00   0.00       0       1
 1999 258    26    23    0.7      0   0.01      5      2      0      9      7      0     0.0  0.000      0      0  0.000  0.000  0.000  0.000    5.71   0.00   0.00      0      0  210.6   0.05   0.05    0.8   0.94   0.06   0.06   0.05   0.01   0.01   0.00   0.00   0.00   0.00   0.00       0       1
 1999 259    27    24    0.8      0   0.01      6      2      0      9      8      0     0.0  0.000      0      0  0.000  0.000  0.000  0.000    5.71   0.00   0.00      0      0  211.3   0.05   0.05    0.9   1.01   0.07   0.07   0.05   0.01   0.01   0.01   0.00   0.00   0.00   0.00       0       1
 1999 260    28    25    0.9      0   0.01      6      2      0     10      8      0     0.0  0.000      0      0  0.000  0.000  0.000  0.000    5.72   0.00   0.00      0      0  211.4   0.05   0.05    0.9   1.07   0.07   0.07   0.06   0.02   0.01   0.01   0.00   0.00   0.00   0.00       0       1
 1999 261    29    26    1.0      0   0.01      6      3      0     12      9      0     0.0  0.000      0      0  0.000  0.000  0.000  0.000    5.72   0.00   0.00      0      0  214.0   0.05   0.05    1.0   1.17   0.08   0.08   0.06   0.02   0.01   0.01   0.00   0.00   0.00   0.00       0       1
 1999 262    30    27    1.1      0   0.01      7      3      0     12     10      0     0.0  0.000      0      0  0.000  0.000  0.000  0.000    5.72   0.00   0.00      0      0  209.3   0.06   0.06    1.0   1.23   0.08   0.08   0.07   0.02   0.02   0.01   0.00   0.00   0.00   0.00       0       1
 1999 263    31    28    1.2      0   0.02      8      3      0     13     11      0     0.0  0.000      0      0  0.000  0.000  0.000  0.000    5.72   0.00   0.00      0      0  211.4   0.06   0.06    1.0   1.25   0.08   0.08   0.07   0.02   0.02   0.01   0.00   0.00   0.00   0.00       0       1
 1999 264    32    29    1.4      0   0.02      9      3      0     14     12      0     0.0  0.000      0      0  0.000  0.000  0.000  0.000    5.72   0.00   0.00      0      0  210.9   0.07   0.06    1.0   1.25   0.08   0.08   0.07   0.02   0.02   0.01   0.01   0.00   0.00   0.00       0       1
 1999 265    33    30    1.5      0   0.02     10      3      0     15     13      0     0.0  0.000      0      0  0.000  0.000  0.000  0.000    5.72   0.00   0.00      0      0  208.9   0.07   0.07    1.1   1.25   0.09   0.09   0.08   0.02   0.02   0.01   0.01   0.00   0.00   0.00       0       1
 1999 266    34    31    1.6      0   0.02     11      4      0     16     14      0     0.0  0.000      0      0  0.000  0.000  0.000  0.000    5.72   0.00   0.00      0      0  205.7   0.07   0.07    1.1   1.25   0.09   0.09   0.08   0.03   0.02   0.01   0.01   0.00   0.00   0.00       0       1
 1999 267    35    32    1.7      0   0.02     11      4      0     17     16      0     0.0  0.000      0      0  0.000  0.000  0.000  0.000    5.72   0.00   0.00      0      0  205.0   0.08   0.08    1.2   1.25   0.10   0.10   0.09   0.03   0.02   0.02   0.01   0.00   0.00   0.00       0       1
 1999 268    36    33    1.8      0   0.02     12      4      0     17     16      0     0.0  0.000      0      0  0.000  0.000  0.000  0.000    5.72   0.00   0.00      0      0  209.7   0.08   0.08    1.1   1.25   0.10   0.10   0.09   0.03   0.02   0.02   0.01   0.00   0.00   0.00       0       1
 1999 269    37    34    2.0      0   0.03     12      5      0     18     17      0     0.0  0.000      0      0  0.000  0.000  0.000  0.000    5.72   0.00   0.00      0      0  214.1   0.08   0.08    1.1   1.25   0.10   0.10   0.09   0.03   0.03   0.02   0.01   0.00   0.00   0.00       0       1
 1999 270    38    35    2.1      0   0.03     14      5      0     19     19      0     0.0  0.000      0      0  0.000  0.000  0.000  0.000    5.72   0.00   0.00      0      0  212.9   0.09   0.09    1.2   1.25   0.11   0.11   0.10   0.03   0.03   0.02   0.01   0.00   0.00   0.00       0       1
 1999 271    39    36    2.2      0   0.03     15      5      0     20     20      0     0.0  0.000      0      0  0.000  0.000  0.000  0.000    5.72   0.00   0.00      0      0  220.9   0.09   0.09    1.2   1.25   0.11   0.11   0.10   0.03   0.03   0.02   0.01   0.00   0.00   0.00       0       2
 1999 272    40    37    2.3      0   0.03     16      6      0     21     22      0     0.0  0.000      0      0  0.000  0.000  0.000  0.000    5.72   0.00   0.00      0      0  213.9   0.10   0.10    1.2   1.25   0.11   0.11   0.10   0.04   0.03   0.02   0.01   0.00   0.00   0.00       0       2
 1999 273    41    38    2.4      0   0.04     17      6      0     22     23      0     0.0  0.000      0      0  0.000  0.000  0.000  0.000    5.72   0.00   0.00      0      0  211.6   0.10   0.10    1.3   1.25   0.12   0.12   0.11   0.04   0.03   0.02   0.01   0.01   0.00   0.00       0       2
 1999 274    42    39    2.5      0   0.04     18      7      0     23     24      0     0.0  0.000      0      0  0.000  0.000  0.000  0.000    5.72   0.00   0.00      0      0  210.7   0.10   0.10    1.2   1.25   0.12   0.12   0.11   0.04   0.03   0.02   0.02   0.01   0.00   0.00       0       2
 1999 275    43    40    2.5      0   0.04     19      7      0     24     26      0     0.0  0.000      0      0  0.000  0.000  0.000  0.000    5.72   0.00   0.00      0      0  205.5   0.10   0.10    1.2   1.25   0.12   0.13   0.12   0.04   0.04   0.03   0.02   0.01   0.00   0.00       0       2
 1999 276    44    41    2.6      0   0.04     19      8      0     25     27      0     0.0  0.000      0      0  0.000  0.000  0.000  0.000    5.72   0.00   0.00      0      0  201.5   0.11   0.10    1.2   1.25   0.13   0.13   0.12   0.04   0.04   0.03   0.02   0.01   0.00   0.00       0       2
 1999 277    45    42    2.6      0   0.04     20      8      0     26     28      0     0.0  0.000      0      0  0.000  0.000  0.000  0.000    5.72   0.00   0.00      0      0  198.2   0.11   0.10    1.2   1.25   0.13   0.13   0.12   0.04   0.04   0.03   0.02   0.01   0.00   0.00       0       2
 1999 278    46    43    2.7      0   0.04     21      8      0     26     29      0     0.0  0.000      0      0  0.000  0.000  0.000  0.000    5.72   0.00   0.00      0      0  198.6   0.11   0.11    1.2   1.25   0.14   0.14   0.13   0.05   0.04   0.03   0.02   0.01   0.00   0.00       0       2
 1999 279    47    44    2.8      0   0.04     22      9      0     28     31      0     0.0  0.000      0      0  0.000  0.000  0.000  0.000    5.72   0.00   0.00      0      0  202.3   0.11   0.11    1.3   1.25   0.14   0.14   0.13   0.05   0.04   0.03   0.02   0.01   0.00   0.00       0       2
 1999 280    48    45    2.9      0   0.05     23      9      0     28     32      0     0.0  0.000      0      0  0.000  0.000  0.000  0.000    5.72   0.00   0.00      0      0  206.4   0.11   0.11    1.3   1.25   0.14   0.15   0.14   0.05   0.04   0.03   0.02   0.01   0.00   0.00       0       2
 1999 281    49    46    3.0      0   0.05     24     10      0     30     34      0     0.0  0.000      0      0  0.000  0.000  0.000  0.000    5.72   0.00   0.00      0      0  208.5   0.12   0.12    1.3   1.25   0.15   0.15   0.14   0.05   0.05   0.03   0.02   0.01   0.00   0.00       0       2
 1999 282    50    47    3.1      0   0.05     26     11      0     31     37      0     0.0  0.000      0      0  0.000  0.000  0.000  0.000    5.72   0.00   0.00      0      0  206.7   0.12   0.12    1.4   1.25   0.16   0.16   0.15   0.05   0.05   0.04   0.02   0.01   0.00   0.00       0       2
 1999 283    51    48    3.3      0   0.06     28     12      0     34     40      0     0.0  0.000      0      0  0.000  0.000  0.000  0.000    5.72   0.00   0.00      0      0  204.6   0.13   0.12    1.4   1.25   0.17   0.17   0.16   0.06   0.05   0.04   0.03   0.01   0.00   0.00       0       3
 1999 284    52    49    3.4      0   0.06     31     14      0     37     45      0     0.0  0.000      0      0  0.000  0.000  0.000  0.000    5.72   0.00   0.00      0      0  204.7   0.13   0.13    1.6   1.25   0.18   0.18   0.17   0.07   0.06   0.04   0.03   0.01   0.00   0.00       0       3
 1999 285    53    50    3.5      0   0.07     32     15      0     38     47      0     0.0  0.000      0      0  0.000  0.000  0.000  0.037    5.72   0.00   0.00      0      0  210.6   0.14   0.13    1.6   1.25   0.18   0.19   0.17   0.07   0.06   0.05   0.03   0.01   0.00   0.00       0       3
 1999 286    54    51    3.7      0   0.07     33     16      0     39     49      0     0.0  0.000      0      0  0.000  0.000  0.000  0.037    5.72   0.00   0.00      0      0  217.6   0.14   0.14    1.6   1.25   0.19   0.19   0.18   0.07   0.06   0.05   0.03   0.01   0.00   0.00       0       3
 1999 287    55    52    3.8      0   0.08     35     16      0     40     51      0     0.0  0.000      0      0  0.000  0.000  0.000  0.000    5.72   0.00   0.00      0      0  218.7   0.15   0.14    1.6   1.25   0.19   0.19   0.18   0.07   0.06   0.05   0.03   0.02   0.00   0.00       0       3
 1999 288    56    53    4.0      0   0.08     36     19      0     42     55      0     0.0  0.000      0      0  0.000  0.000  0.000  0.000    5.72   0.00   0.00      0      0  225.4   0.15   0.15    1.7   1.25   0.21   0.20   0.19   0.08   0.07   0.05   0.04   0.02   0.00   0.00       0       4
 1999 289    57    54    4.1      0   0.09     40     22      0     46     61      0     0.0  0.000      0      0  0.000  0.000  0.000  0.000    5.72   0.00   0.00      0      0  224.4   0.16   0.15    1.9   1.25   0.22   0.22   0.21   0.08   0.07   0.06   0.04   0.02   0.00   0.00       0       4
 1999 290    58    55    4.3      0   0.10     43     26      0     52     69      0     0.0  0.000      0      0  0.000  0.000  0.000  0.000    5.72   0.00   0.00      0      0  223.4   0.16   0.15    2.1   1.25   0.25   0.25   0.24   0.09   0.08   0.07   0.04   0.02   0.00   0.00       0       4
 1999 291    59    56    4.5      0   0.11     47     32      0     58     79      0     0.0  0.000      0      0  0.000  0.000  0.000  0.000    5.72   0.00   0.00      0      0  225.3   0.17   0.15    2.4   1.25   0.27   0.27   0.26   0.11   0.09   0.07   0.05   0.02   0.00   0.00       0       4
 1999 292    60    57    4.6      0   0.11     51     38      0     65     89      0     0.0  0.000      0      0  0.000  0.000  0.000  0.000    5.72   0.00   0.00      0      0  224.5   0.18   0.15    2.7   1.25   0.30   0.30   0.29   0.12   0.11   0.08   0.06   0.03   0.00   0.00       0       5
 1999 293    61    58    4.8      0   0.12     55     45      0     73    100      0     0.0  0.000      0      0  0.000  0.000  0.000  0.000    5.73   0.00   0.00      0      0  226.2   0.19   0.15    3.2   1.25   0.34   0.34   0.33   0.13   0.12   0.09   0.07   0.03   0.00   0.00       0       5
 1999 294    62    59    5.0      0   0.14     62     50      0     77    112      0     0.0  0.000      0      0  0.000  0.000  0.000  0.000    5.73   0.00   0.00      0      0  231.9   0.20   0.15    3.4   1.25   0.36   0.36   0.35   0.14   0.13   0.10   0.07   0.03   0.00   0.00       0       6
 1999 295    63    60    5.2      0   0.16     69     55      0     82    125      0     0.0  0.000      0      0  0.000  0.000  0.000  0.000    5.72   0.00   0.00      0      0  234.0   0.21   0.15    3.7   1.25   0.38   0.38   0.37   0.15   0.13   0.11   0.08   0.04   0.00   0.00       0       6
 1999 296    64    61    5.4      0   0.18     76     61      0     87    137      0     0.0  0.000      0      0  0.000  0.000  0.000  0.000    5.72   0.00   0.00      0      0  237.8   0.21   0.15    3.9   1.25   0.40   0.40   0.39   0.16   0.14   0.11   0.08   0.04   0.00   0.00       0       6
 1999 297    65    62    5.5      0   0.20     83     66      0     92    150      0     0.0  0.000      0      0  0.000  0.000  0.000  0.000    5.72   0.00   0.00      0      0  243.3   0.22   0.15    4.2   1.25   0.42   0.42   0.41   0.17   0.15   0.12   0.08   0.04   0.00   0.00       0       7
 1999 298    66    63    5.7      0   0.23     92     73      0     98    165      0     0.0  0.000      0      0  0.000  0.000  0.000  0.000    5.72   0.00   0.00      0      0  251.7   0.23   0.15    4.5   1.25   0.44   0.44   0.43   0.18   0.16   0.13   0.09   0.05   0.00   0.00       0       7
 1999 299    67    64    5.9      0   0.26    105     83      0    107    189      0     0.0  0.000      0      0  0.000  0.000  0.000  0.000    5.72   0.00   0.00      0      0  250.5   0.23   0.15    4.9   1.25   0.48   0.48   0.47   0.20   0.18   0.14   0.10   0.05   0.00   0.00       0       8
 1999 300    68    65    6.1      0   0.31    121     96      0    117    216      0     0.0  0.000      0      0  0.000  0.000  0.000  0.000    5.72   0.00   0.00      0      0  253.6   0.24   0.15    5.4   1.25   0.53   0.53   0.52   0.22   0.19   0.16   0.11   0.06   0.00   0.00       0       9
 1999 301    69    66    6.3      0   0.35    136    109      0    128    245      0     0.0  0.000      0      0  0.000  0.000  0.000  0.000    5.72   0.00   0.00      0      0  260.6   0.26   0.15    6.0   1.25   0.57   0.57   0.56   0.24   0.21   0.17   0.12   0.06   0.00   0.00       0      10
 1999 302    70    67    6.6      0   0.41    155    126      0    141    281      0     0.0  0.000      0      0  0.000  0.000  0.000  0.000    5.72   0.00   0.00      0      0  266.2   0.27   0.15    6.7   1.25   0.63   0.63   0.62   0.26   0.23   0.19   0.13   0.07   0.00   0.00       0      10
 1999 303    71    68    6.8      0   0.47    171    140      0    152    310      0     0.0  0.000      0      0  0.000  0.000  0.000  0.000    5.72   0.00   0.00      0      0  277.7   0.28   0.15    7.2   1.25   0.68   0.68   0.67   0.28   0.25   0.20   0.15   0.07   0.00   0.00       0      11
 1999 304    72    69    7.0      0   0.54    193    160      0    167    353      0     0.0  0.000      0      0  0.000  0.000  0.000  0.000    5.72   0.00   0.00      0      0  282.4   0.29   0.15    8.0   1.25   0.74   0.74   0.73   0.31   0.28   0.22   0.16   0.08   0.00   0.00       0      12
 1999 305    73    70    7.2      0   0.61    208    174      0    177    382      0     0.0  0.000      0      0  0.000  0.000  0.000  0.000    5.72   0.00   0.00      0      0  293.8   0.30   0.15    8.6   1.25   0.79   0.79   0.78   0.33   0.29   0.24   0.17   0.09   0.00   0.00       0      13
 1999 306    74    71    7.4      1   0.69    237    203      0    198    439      0     0.0  0.000      0      0  0.000  0.000  0.000  0.000    5.72   0.00   0.00      0      0  291.5   0.31   0.15    9.6   1.25   0.88   0.88   0.87   0.37   0.33   0.27   0.19   0.10   0.00   0.00       0      15
 1999 307    75    72    7.6      1   0.76    266    232      0    219    498      0     0.0  0.000      0      0  0.000  0.000  0.000  0.000    5.72   0.00   0.00      0      0  287.3   0.32   0.15   10.7   1.25   0.97   0.97   0.96   0.41   0.36   0.30   0.21   0.11   0.00   0.00       0      16
 1999 308    76    73    7.7      1   0.79    277    243      0    226    520      0     0.0  0.000      0      0  0.000  0.000  0.000  0.000    5.72   0.00   0.00      0      0  286.4   0.33   0.15   10.9   1.25   1.00   1.00   0.99   0.42   0.38   0.31   0.22   0.11   0.00   0.00       0      17
 1999 309    77    74    7.9      1   0.85    308    276      0    248    585      0     0.0  0.000      0      0  0.000  0.000  0.000  0.000    5.71   0.00   0.00      0      0  275.0   0.33   0.15   11.9   1.25   1.10   1.10   1.09   0.46   0.41   0.34   0.24   0.12   0.00   0.00       0      18
 1999 310    78    75    8.0      1   0.92    348    319      0    277    667      0     0.0  0.000      0      0  0.000  0.000  0.000  0.000    5.70   0.00   0.00      0      0  265.2   0.34   0.15   13.3   1.25   1.22   1.22   1.21   0.51   0.46   0.38   0.27   0.14   0.00   0.00       1      19
 1999 311    79    76    8.2      1   0.98    372    345      0    293    717      0     0.0  0.000      0      0  0.000  0.000  0.000  0.000    5.70   0.00   0.00      0      0  264.0   0.35   0.15   14.1   1.25   1.29   1.29   1.28   0.54   0.49   0.40   0.29   0.15   0.00   0.00       1      20
 1999 312    80    77    8.3      1   1.02    399    376      0    313    775      0     0.0  0.000      0      0  0.000  0.000  0.000  0.000    5.70   0.00   0.00      0      0  254.7   0.35   0.15   15.0   1.25   1.38   1.37   1.37   0.58   0.52   0.43   0.31   0.16   0.00   0.00       2      21
 1999 313    81    78    8.4      1   1.04    425    405      0    332    830      0     0.0  0.000      0      0  0.000  0.000  0.000  0.000    5.71   0.00   0.00      0      0  245.4   0.36   0.15   15.8   1.25   1.46   1.46   1.45   0.62   0.55   0.45   0.32   0.17   0.00   0.00       3      22
 1999 314    82    79    8.5      1   1.08    454    439      0    353    893      0     0.0  0.000      0      0  0.000  0.000  0.000  0.000    5.71   0.00   0.00      0      0  237.2   0.36   0.15   16.7   1.25   1.55   1.55   1.54   0.65   0.59   0.48   0.35   0.18   0.00   0.00       4      23
 1999 315    83    80    8.6      1   1.14    495    488      0    383    984      0     0.0  0.000      0      0  0.000  0.000  0.000  0.000    5.72   0.00   0.00      0      0  230.4   0.36   0.15   18.0   1.25   1.68   1.68   1.67   0.71   0.64   0.52   0.38   0.19   0.00   0.00       6      25
 1999 316    84    81    8.8      1   1.22    542    545      0    416   1087      0     0.0  0.000      0      0  0.000  0.000  0.000  0.000    5.72   0.00   0.00      0      0  225.2   0.37   0.15   19.7   1.25   1.82   1.82   1.81   0.77   0.70   0.57   0.41   0.21   0.00   0.00       9      27
 1999 317    85    82    9.0      1   1.31    588    603      0    450   1192      0     0.0  0.000      0      0  0.000  0.000  0.000  0.000    5.73   0.00   0.00      0      0  223.2   0.38   0.15   21.4   1.25   1.97   1.97   1.96   0.84   0.75   0.61   0.44   0.23   0.00   0.00      14      30
 1999 318    86    83    9.2      1   1.40    634    664      0    485   1298      0     0.0  0.000      0      0  0.000  0.000  0.000  0.000    5.71   0.00   0.00      0      0  220.4   0.39   0.15   23.4   1.25   2.12   2.12   2.11   0.90   0.81   0.66   0.48   0.25   0.00   0.00      20      32
 1999 319    87    84    9.4      1   1.49    685    734      0    522   1420      0     0.0  0.000      0      0  0.000  0.000  0.000  0.000    5.68   0.00   0.00      0      0  217.0   0.40   0.15   27.2   1.25   2.26   2.28   2.28   0.97   0.88   0.72   0.52   0.27   0.00   0.00      24      36
 1999 320    88    85    9.6      1   1.57    740    811      0    563   1551      0     0.0  0.000      0      0  0.000  0.000  0.000  0.000    5.61   0.00   0.00      0      0  212.6   0.41   0.15   31.7   1.25   2.40   2.47   2.46   1.05   0.95   0.77   0.56   0.29   0.00   0.00      28      39
 1999 321    89    86    9.8      3   1.66    793    888      0    602   1680      0     0.0  0.000      0      0  0.000  0.000  0.000  0.000    5.53   0.00   0.00      0      0  209.2   0.42   0.15   37.0   1.25   2.51   2.64   2.63   1.13   1.02   0.83   0.60   0.31   0.00   0.00      32      43
 1999 322    90    87   10.1      3   1.75    846    967      0    641   1816      0     0.0  0.000      2     17  0.000  0.000  0.000  0.000    5.43   0.00   0.00      0      2  206.5   0.43   0.15   43.1   1.25   2.59   2.82   2.81   1.20   1.09   0.89   0.64   0.33   0.00   0.00      36      48
 1999 323    91    88   10.3      3   1.83    893   1041      0    676   1944      0     0.0  0.000      9     50  0.000  0.000  0.000  0.000    5.36   0.00   0.00      0      9  204.7   0.44   0.15   50.2   1.25   2.65   2.99   2.98   1.27   1.15   0.94   0.68   0.35   0.00   0.00      41      53
 1999 324    92    89   10.5      3   1.91    939   1115      0    710   2073      0     0.0  0.000     19     70  0.000  0.000  0.000  0.000    5.30   0.00   0.01      0     19  203.0   0.46   0.15   58.5   1.25   2.68   3.15   3.14   1.34   1.21   0.99   0.71   0.37   0.00   0.00      46      58
 1999 325    93    90   10.7      3   1.98    996   1207      0    751   2235      0     0.0  0.000     32     97  0.000  0.000  0.000  0.000    5.21   0.00   0.01      0     32  199.0   0.47   0.15   68.1   1.25   2.71   3.33   3.33   1.43   1.29   1.05   0.76   0.39   0.00   0.00      51      63
 1999 326    94    91   10.9      3   2.04   1052   1299      0    791   2400      0     0.0  0.000     49    128  0.000  0.000  0.000  0.000    5.13   0.00   0.02      0     49  194.2   0.48   0.15   79.3   1.25   2.71   3.49   3.53   1.51   1.37   1.12   0.81   0.42   0.00   0.00      55      68
 1999 327    95    92   11.1      3   2.09   1083   1354      0    813   2506      0     0.0  0.000     69    146  0.000  0.000  0.000  0.000    5.12   0.00   0.03      0     69  193.3   0.48   0.15   79.5   1.25   2.71   3.57   3.63   1.56   1.41   1.15   0.83   0.43   0.00   0.00      60      74
 1999 328    96    93   11.3      3   2.15   1127   1432      0    844   2650      0     0.0  0.000     91    161  0.000  0.000  0.000  0.000    5.08   0.00   0.03      0     91  190.7   0.49   0.15   90.2   1.25   2.70   3.68   3.77   1.64   1.48   1.21   0.87   0.45   0.00   0.00      65      81
 1999 329    97    94   11.5      3   2.20   1172   1512      0    875   2798      0     0.0  0.000    114    185  0.000  0.000  0.000  0.000    5.08   0.00   0.04      0    114  187.7   0.50   0.15   90.3   1.25   2.86   3.83   3.87   1.70   1.53   1.26   0.91   0.47   0.00   0.00      70      87
 1999 330    98    95   11.7      3   2.23   1188   1547      0    887   2879      0     0.0  0.000    144    214  0.000  0.000  0.000  0.000    5.05   0.00   0.05      0    144  188.0   0.51   0.15   90.4   1.25   2.92   3.89   3.91   1.73   1.56   1.27   0.92   0.47   0.00   0.00      75      92
 1999 331    99    96   11.9      3   2.28   1229   1625      0    916   3031      0     0.0  0.000    177    246  0.000  0.000  0.000  0.000    5.03   0.00   0.06      0    177  185.3   0.52   0.15   92.9   1.25   3.07   4.03   4.01   1.79   1.61   1.32   0.95   0.49   0.00   0.00      80      99
 1999 332   100    97   12.1      3   2.32   1275   1714      0    949   3204      0     0.0  0.000    215    291  0.000  0.000  0.000  0.000    4.99   0.00   0.07      0    215  181.7   0.53   0.15  106.3   1.25   3.23   4.18   4.12   1.85   1.67   1.37   0.99   0.51   0.00   0.00      86     106
 1999 333   101    98   12.3      3   2.35   1316   1798      0    978   3372      0     0.0  0.000    258    332  0.000  0.000  0.000  0.000    4.97   0.00   0.08      0    258  178.7   0.54   0.15  110.9   1.25   3.30   4.33   4.22   1.92   1.73   1.41   1.02   0.53   0.00   0.00      92     114
 1999 334   102    99   12.5      3   2.35   1343   1861      0   1043   3510      0     0.0  0.000    306    383  0.000  0.314  0.000  0.000    4.93   0.00   0.09      0    306  175.3   0.55   0.15  111.5   1.25   3.36   4.61   4.43   2.08   1.87   1.53   1.11   0.57   0.00   0.00      98     126
 1999 335   103   100   12.8      3   2.38   1363   1910      0   1054   3637      0     0.0  0.000    364    444  0.000  0.000  0.000  0.000    4.90   0.00   0.10      0    364  174.4   0.56   0.15  111.6   1.25   3.28   4.65   4.45   2.11   1.91   1.56   1.13   0.58   0.00   0.00     105     138
 1999 336   104   101   13.0      3   2.37   1362   1922      0   1049   3715      0     0.0  0.000    431    498  0.000  0.000  0.000  0.000    4.86   0.00   0.12      0    431  174.0   0.58   0.15  111.7   1.25   3.28   4.64   4.40   2.11   1.90   1.56   1.12   0.58   0.00   0.00     110     145
 1999 337   105   102   13.1      3   2.38   1384   1975      0   1063   3859      0     0.0  0.000    500    523  0.000  0.000  0.000  0.000    4.84   0.00   0.13      0    500  172.1   0.58   0.15  111.8   1.25   3.37   4.72   4.41   2.14   1.93   1.58   1.14   0.59   0.00   0.00     116     153
 1999 338   106   103   13.4      3   2.40   1416   2048      0   1083   4038      0     0.0  0.000    574    565  0.000  0.000  0.000  0.000    4.82   0.00   0.14      0    574  169.4   0.59   0.15  112.8   1.25   3.49   4.83   4.44   2.19   1.98   1.62   1.17   0.60   0.00   0.00     122     163
 1999 339   107   104   13.5      3   2.40   1419   2063      0   1083   4131      0     0.0  0.000    649    628  0.000  0.000  0.000  0.000    4.80   0.00   0.16      0    649  168.8   0.60   0.15  113.2   1.25   3.51   4.85   4.41   2.20   1.98   1.62   1.17   0.60   0.00   0.00     126     169
 1999 340   108   105   13.6      3   2.40   1444   2121      0   1099   4280      0     0.0  0.000    715    649  0.000  0.000  0.000  0.000    4.79   0.00   0.17      0    715  166.1   0.61   0.15  115.1   1.25   3.55   4.94   4.43   2.24   2.02   1.65   1.19   0.62   0.00   0.00     130     175
 1999 341   109   106   13.8      3   2.40   1462   2165      0   1108   4410      0     0.0  0.000    783    667  0.000  0.000  0.000  0.000    4.77   0.00   0.18      0    783  164.2   0.61   0.15  116.7   1.25   3.48   5.01   4.43   2.27   2.05   1.68   1.21   0.63   0.00   0.00     133     183
 1999 342   110   107   13.9      5   2.39   1477   2212      0   1158   4548      0     0.0  0.000    858    681  0.085  0.390  0.000  0.000    4.73   0.00   0.19      0    858  162.0   0.62   0.15  117.0   1.25   3.41   5.22   4.54   2.40   2.18   1.78   1.29   0.67   0.00   0.00     139     196
 1999 343   111   108   14.0      5   2.38   1485   2254      0   1194   4658     20     0.0  0.000    919    701  0.204  0.469  0.000  0.000    4.68   0.00   0.20      0    919  160.1   0.62   0.15  116.1   1.25   3.34   5.33   4.60   2.49   2.29   1.87   1.35   0.70   0.00   0.00     164     211
 1999 344   112   109   14.1      5   2.36   1480   2280      1   1183   4724     57     2.4  0.000    964    723  0.449  0.633  0.000  0.000    4.61   0.14   0.20      0    964  159.3   0.62   0.15  112.2   1.25   3.26   5.26   4.53   2.47   2.28   1.87   1.35   0.70   0.00   0.00     212     230
 1999 345   113   110   14.2      5   2.34   1473   2297      5   1168   4798     79     6.8  0.001   1027    748  0.406  0.604  0.000  0.000    4.56   0.52   0.21      0   1027  158.7   0.62   0.15  109.0   1.25   3.19   5.18   4.45   2.45   2.26   1.86   1.34   0.69   0.00   0.00     245     250
 1999 346   114   111   14.3      5   2.31   1461   2293     11   1169   4844    108    10.3  0.002   1090    770  0.029  0.353  0.000  0.000    4.53   1.02   0.23      0   1090  158.4   0.63   0.15  108.2   1.25   3.28   5.12   4.40   2.45   2.28   1.88   1.36   0.70   0.00   0.00     296     266
 1999 347   115   112   14.5      5   2.28   1445   2304     19   1164   4901    142    13.4  0.004   1153    794  0.000  0.000  0.000  0.000    4.49   1.65   0.24      0   1153  157.5   0.63   0.15  109.9   1.25   3.31   5.11   4.34   2.43   2.27   1.88   1.36   0.70   0.00   0.00     369     278
 1999 348   116   113   14.7      5   2.21   1423   2346     29   1166   5004    162    18.0  0.006   1235    828  0.000  0.000  0.023  0.000    4.43   2.36   0.25      0   1235  155.0   0.64   0.15  127.3   1.25   3.33   5.14   4.28   2.43   2.28   1.90   1.37   0.71   0.00   0.00     458     291
 1999 349   117   114   14.8      5   2.13   1382   2348     41   1150   5036    178    22.8  0.008   1305    875  0.410  0.607  0.000  0.000    4.37   3.10   0.26      0   1305  154.4   0.65   0.15  123.4   1.25   3.25   5.07   4.20   2.40   2.25   1.89   1.36   0.70   0.00   0.00     538     312
 1999 350   118   115   14.9      5   2.11   1372   2356     53   1134   5080    206    25.6  0.010   1353    901  0.516  0.678  0.000  0.000    4.31   3.89   0.27      0   1353  154.0   0.65   0.15  118.8   1.25   3.18   5.00   4.12   2.36   2.22   1.87   1.35   0.70   0.00   0.00     578     333
 1999 351   119   116   15.0      5   2.09   1357   2338     67   1116   5081    238    28.1  0.013   1386    914  0.658  0.772  0.000  0.000    4.27   4.83   0.27      0   1386  154.3   0.65   0.15  112.7   1.25   3.11   4.92   4.04   2.33   2.19   1.85   1.34   0.69   0.00   0.00     620     356
 1999 352   120   117   15.0      5   2.07   1340   2314     83   1098   5066    275    30.1  0.016   1411    917  0.650  0.767  0.000  0.000    4.23   5.86   0.28      0   1411  154.7   0.65   0.15  104.8   1.25   3.04   4.83   3.95   2.29   2.16   1.83   1.33   0.69   0.00   0.00     666     381
 1999 353   121   118   15.1      5   2.00   1291   2271    103   1079   4981    326    31.5  0.021   1419    911  0.703  0.802  0.000  0.000    4.19   7.23   0.28      0   1419  155.2   0.65   0.15   97.5   1.25   2.96   4.74   3.87   2.25   2.13   1.81   1.32   0.68   0.00   0.00     777     406
 1999 354   122   119   15.1      5   1.92   1236   2226    124   1062   4891    373    33.3  0.025   1429    906  0.728  0.819  0.000  0.000    4.15   8.70   0.29      0   1429  155.7   0.65   0.15   90.7   1.25   2.90   4.65   3.79   2.22   2.10   1.79   1.31   0.68   0.00   0.00     894     429
 1999 355   123   120   15.1      5   1.83   1171   2175    150   1043   4774    433    34.7  0.031   1428    890  0.651  0.768  0.000  0.000    4.11  10.50   0.30      0   1428  156.2   0.65   0.15   84.3   1.25   2.84   4.56   3.71   2.18   2.07   1.77   1.30   0.67   0.00   0.00    1037     452
 1999 356   124   121   15.2      5   1.74   1112   2127    181   1025   4645    504    36.0  0.039   1406    876  0.765  0.843  0.000  0.000    4.07  12.89   0.30      0   1406  156.6   0.65   0.15   78.4   1.25   2.77   4.47   3.63   2.14   2.04   1.75   1.29   0.67   0.00   0.00    1184     475
 1999 357   125   122   15.2      5   1.65   1052   2082    212   1009   4524    566    37.5  0.047   1391    857  0.763  0.842  0.000  0.000    4.03  15.26   0.31      0   1391  157.0   0.65   0.15   72.9   1.25   2.72   4.39   3.56   2.11   2.01   1.73   1.28   0.66   0.00   0.00    1325     496
 1999 358   126   123   15.2      5   1.57    994   2035    249    991   4425    595    41.8  0.056   1396    851  0.771  0.848  0.000  0.000    3.99  17.81   0.32      0   1396  157.5   0.65   0.15   67.8   1.25   2.65   4.30   3.48   2.07   1.98   1.71   1.27   0.66   0.00   0.00    1431     518
 1999 359   127   124   15.2      5   1.50    947   1995    270    972   4308    645    41.9  0.063   1366    835  0.823  0.882  0.000  0.000    3.97  19.76   0.32      0   1366  158.0   0.65   0.15   63.1   1.25   2.59   4.20   3.40   2.03   1.95   1.68   1.26   0.65   0.00   0.00    1543     541
 1999 360   128   125   15.3      5   1.42    897   1955    285    954   4161    717    39.8  0.069   1309    806  0.775  0.850  0.000  0.000    3.96  21.77   0.31      0   1309  158.5   0.65   0.15   58.7   1.25   2.53   4.11   3.32   1.99   1.91   1.66   1.24   0.65   0.00   0.00    1683     563
 1999 361   129   126   15.3      5   1.35    849   1916    298    935   4062    741    40.3  0.073   1297    796  0.776  0.850  0.000  0.000    3.95  23.01   0.32      0   1297  159.0   0.65   0.15   54.6   1.25   2.47   4.01   3.24   1.95   1.88   1.63   1.23   0.64   0.00   0.00    1773     586
 1999 362   130   127   15.3      5   1.27    796   1872    354    917   3982    781    45.3  0.089   1314    782  0.324  0.549  0.000  0.000    3.87  26.93   0.33      0   1314  159.5   0.65   0.15   52.8   1.25   2.42   3.92   3.17   1.92   1.84   1.61   1.21   0.64   0.00   0.00    1874     604
 1999 363   131   128   15.3      5   1.19    743   1830    403    900   3909    815    49.4  0.103   1335    770  0.571  0.714  0.000  0.000    3.80  30.18   0.34      0   1335  160.0   0.65   0.15   49.1   1.25   2.36   3.84   3.10   1.88   1.81   1.59   1.20   0.63   0.00   0.00    1964     624
 1999 364   132   129   15.3      5   1.12    696   1791    453    883   3840    863    52.4  0.118   1353    753  0.346  0.564  0.000  0.000    3.73  33.46   0.35      0   1353  160.5   0.65   0.15   45.7   1.25   2.31   3.75   3.03   1.84   1.78   1.56   1.19   0.63   0.00   0.00    2050     644
 1999 365   133   130   15.3      5   1.06    657   1757    476    866   3770    909    52.3  0.126   1356    739  0.819  0.880  0.000  0.000    3.69  35.08   0.36      0   1356  161.0   0.65   0.15   42.5   1.25   2.26   3.67   2.96   1.81   1.75   1.54   1.17   0.62   0.00   0.00    2121     663
 2000 001   134   131   15.3      5   1.05    649   1742    496    850   3753    942    52.6  0.132   1361    718  0.837  0.891  0.000  0.000    3.67  36.41   0.36      0   1361  161.5   0.65   0.15   39.5   1.25   2.21   3.59   2.90   1.77   1.72   1.51   1.16   0.62   0.00   0.00    2138     682
 2000 002   135   132   15.3      5   1.04    643   1729    515    834   3741    958    53.7  0.138   1369    685  0.827  0.885  0.000  0.000    3.64  37.60   0.37      0   1369  162.0   0.65   0.15   36.7   1.25   2.16   3.51   2.84   1.74   1.69   1.49   1.14   0.62   0.00   0.00    2149     700
 2000 003   136   133   15.3      5   1.04    638   1716    531    818   3732    967    54.9  0.142   1378    647  0.853  0.902  0.000  0.000    3.62  38.51   0.37      0   1378  162.5   0.65   0.15   34.2   1.25   2.11   3.43   2.77   1.70   1.66   1.47   1.13   0.61   0.00   0.00    2156     718
 2000 004   137   134   15.3      5   1.03    633   1703    547    803   3728    967    56.6  0.147   1392    592  0.838  0.892  0.000  0.000    3.60  39.32   0.37      0   1392  163.0   0.65   0.15   31.8   1.25   2.07   3.36   2.71   1.67   1.62   1.44   1.12   0.61   0.00   0.00    2159     736
 2000 005   138   135   15.3      5   1.03    629   1691    558    787   3720    967    57.7  0.150   1401    554  0.855  0.904  0.000  0.000    3.59  39.81   0.38      0   1401  163.5   0.65   0.15   29.5   1.25   2.02   3.28   2.65   1.64   1.59   1.42   1.10   0.60   0.00   0.00    2160     754
 2000 006   139   136   15.3      5   1.03    625   1680    565    772   3712    967    58.4  0.152   1407    527  0.873  0.915  0.000  0.000    3.58  40.14   0.38      0   1407  164.0   0.65   0.15   27.5   1.25   1.98   3.21   2.59   1.60   1.56   1.39   1.08   0.60   0.00   0.00    2161     771
 2000 007   140   137   15.3      5   1.02    623   1669    566    756   3700    967    58.6  0.153   1408    509  0.885  0.923  0.000  0.000    3.59  40.22   0.38      0   1408  164.5   0.65   0.15   25.6   1.25   1.93   3.13   2.53   1.57   1.53   1.37   1.07   0.59   0.00   0.00    2162     789
 2000 008   141   138   15.3      5   1.02    621   1659    566    741   3688    967    58.6  0.154   1408    493  0.900  0.933  0.000  0.000    3.60  40.22   0.38      0   1408  165.0   0.65   0.15   23.8   1.25   1.88   3.06   2.47   1.53   1.50   1.34   1.05   0.59   0.00   0.00    2162     805
 2000 009   142   139   15.3      5   1.02    619   1650    566    725   3677    967    58.6  0.154   1408    479  0.854  0.903  0.000  0.000    3.61  40.23   0.38      0   1408  165.4   0.65   0.15   22.1   1.25   1.84   2.99   2.41   1.50   1.47   1.32   1.04   0.58   0.00   0.00    2162     822
 2000 010   143   140   15.3      5   1.02    617   1640    569    710   3666    967    58.9  0.155   1410    471  0.865  0.910  0.000  0.000    3.62  40.36   0.38      0   1410  165.9   0.65   0.15   20.6   1.25   1.80   2.92   2.36   1.46   1.43   1.29   1.02   0.57   0.00   0.00    2162     839
 2000 011   144   141   15.3      5   1.02    615   1630    569    696   3655    967    58.9  0.156   1410    457  0.900  0.933  0.000  0.000    3.63  40.36   0.39      0   1410  166.4   0.65   0.15   19.1   1.25   1.76   2.85   2.30   1.43   1.40   1.27   1.00   0.57   0.00   0.00    2162     855
 2000 012   145   142   15.3      7   1.02    613   1622    569    681   3645    967    58.9  0.156   1410    444  0.883  0.922  0.000  0.000    3.64  40.36   0.39      0   1410  166.9   0.65   0.15   17.8   1.25   1.71   2.78   2.25   1.40   1.37   1.24   0.99   0.56   0.00   0.00    2162     871
 2000 013   146   143   15.3      7   0.82    489   1542    569    668   3441    967    58.9  0.165   1410    439  0.911  0.941  0.000  0.000    3.65  40.37   0.41      0   1410  167.4   0.65   0.15   16.5   1.25   1.70   2.72   2.20   1.37   1.34   1.22   0.97   0.56   0.00   0.00    2356     886
 2000 014   147   144   15.3      7   0.65    387   1475    602    656   3298    967    62.2  0.182   1437    439  0.280  0.520  0.000  0.000    3.56  41.86   0.44      0   1437  167.9   0.65   0.15   15.4   1.25   1.68   2.70   2.15   1.34   1.32   1.20   0.96   0.55   0.00   0.00    2510     898
 2000 015   148   145   15.3      7   0.51    306   1419    657    644   3211    967    67.9  0.205   1486    439  0.000  0.000  0.000  0.000    3.45  44.18   0.46      0   1486  168.4   0.65   0.15   14.3   1.25   1.67   2.67   2.10   1.31   1.29   1.17   0.94   0.55   0.00   0.00    2633     911
 2000 016   149   146   15.3      7   0.41    242   1374    700    632   3139    967    72.4  0.223   1524    439  0.000  0.000  0.000  0.000    3.34  45.91   0.49      0   1524  168.9   0.66   0.15   13.3   1.25   1.66   2.65   2.05   1.28   1.26   1.15   0.93   0.54   0.00   0.00    2729     924
 2000 017   150   147   15.3      7   0.32    192   1338    719    621   3069    967    74.4  0.234   1540    439  0.000  0.000  0.000  0.000    3.27  46.72   0.50      0   1540  169.4   0.66   0.15   12.4   1.25   1.64   2.63   2.01   1.25   1.23   1.13   0.91   0.53   0.00   0.00    2805     935
 2000 018   151   148   15.3      7   0.26    152   1308    753    610   3028    967    77.9  0.249   1568    439  0.000  0.000  0.000  0.000    3.18  48.00   0.52      0   1568  169.8   0.66   0.15   12.4   1.25   1.63   2.61   1.97   1.22   1.21   1.10   0.90   0.53   0.00   0.00    2866     945
 2000 019   152   149   15.3      7   0.20    120   1283    778    600   2993    967    80.5  0.260   1590    439  0.000  0.000  0.000  0.000    3.09  48.97   0.53      0   1590  170.2   0.66   0.15   11.5   1.25   1.62   2.59   1.94   1.19   1.18   1.08   0.88   0.52   0.00   0.00    2914     956
 2000 020   153   150   15.3      7   0.16     95   1263    796    590   2961    967    82.3  0.269   1603    439  0.000  0.000  0.000  0.000    3.02  49.63   0.54      0   1603  170.6   0.66   0.15   10.7   1.25   1.60   2.57   1.90   1.16   1.16   1.06   0.87   0.52   0.00   0.00    2952     967
 2000 021   154   151   15.3      7   0.13     76   1247    802    580   2931    967    82.9  0.273   1608    439  0.000  0.000  0.000  0.000    3.00  49.86   0.55      0   1608  171.0   0.66   0.15    9.9   1.25   1.58   2.54   1.86   1.14   1.13   1.04   0.86   0.51   0.00   0.00    2982     978
 2000 022   155   152   15.3      7   0.10     61   1235    802    570   2903    967    82.9  0.276   1608    439  0.000  0.000  0.000  0.000    3.01  49.86   0.55      0   1608  171.4   0.66   0.15    9.3   1.25   1.56   2.52   1.83   1.11   1.11   1.02   0.84   0.51   0.00   0.00    3006     988
 2000 023   156   153   15.3      7   0.08     48   1224    805    561   2883    967    83.3  0.279   1611    439  0.000  0.000  0.000  0.000    2.99  50.01   0.56      0   1611  171.7   0.66   0.15    8.6   1.25   1.53   2.50   1.80   1.09   1.08   1.00   0.83   0.50   0.00   0.00    3025     998
 2000 024   157   154   15.3      8   0.07     39   1216    805    551   2865    967    83.3  0.281   1611    439  0.000  0.000  0.000  0.000    3.00  50.01   0.56      0   1611  172.0   0.66   0.15    8.0   1.25   1.50   2.48   1.77   1.06   1.06   0.98   0.82   0.49   0.00   0.00    3040    1008

*DSSAT Cropping System Model Ver. 4.0.2.000               Aug 23, 2016; 19:11:30

*RUN   2        : UYSB                    
 MODEL          : CRGRO040 - Soybean         
 EXPERIMENT     : UYSB0386 SB    late to create DSS                             
 TREATMENT  1   : UYSB                    

@YEAR DOY   DAS   DAP   L#SD   GSTD   LAID   LWAD   SWAD   GWAD   RWAD   CWAD   G#AD    GWGD   HIAD   PWAD   P#AD   WSPD   WSGD   NSTD   EWSD    LN%D   SH%D   HIPD   PWDD   PWTD   SLAD   CHTD   CWID   NWAD   RDPD   RL1D   RL2D   RL3D   RL4D   RL5D   RL6D   RL7D   RL8D   RL9D   RL10   SNW0C   SNW1C
 2000 235     3     0    0.0      0   0.00      0      0      0      0      0      0     0.0  0.000      0      0  0.000  0.000  0.000  0.000    0.00   0.00   0.00      0      0    0.0   0.00   0.00    0.0   0.00   0.00   0.00   0.00   0.00   0.00   0.00   0.00   0.00   0.00   0.00       0       0
 2000 236     4     1    0.0      0   0.00      0      0      0      0      0      0     0.0  0.000      0      0  0.000  0.000  0.000  0.000    0.00   0.00   0.00      0      0    0.0   0.00   0.00    0.0   0.00   0.00   0.00   0.00   0.00   0.00   0.00   0.00   0.00   0.00   0.00       0       0
 2000 237     5     2    0.0      0   0.00      0      0      0      0      0      0     0.0  0.000      0      0  0.000  0.000  0.000  0.000    0.00   0.00   0.00      0      0    0.0   0.00   0.00    0.0   0.00   0.00   0.00   0.00   0.00   0.00   0.00   0.00   0.00   0.00   0.00       0       0
 2000 238     6     3    0.0      0   0.00      0      0      0      0      0      0     0.0  0.000      0      0  0.000  0.000  0.000  0.000    0.00   0.00   0.00      0      0    0.0   0.00   0.00    0.0   0.00   0.00   0.00   0.00   0.00   0.00   0.00   0.00   0.00   0.00   0.00       0       0
 2000 239     7     4    0.0      0   0.00      0      0      0      0      0      0     0.0  0.000      0      0  0.000  0.000  0.000  0.000    0.00   0.00   0.00      0      0    0.0   0.00   0.00    0.0   0.00   0.00   0.00   0.00   0.00   0.00   0.00   0.00   0.00   0.00   0.00       0       0
 2000 240     8     5    0.0      0   0.00      0      0      0      0      0      0     0.0  0.000      0      0  0.000  0.000  0.000  0.000    0.00   0.00   0.00      0      0    0.0   0.00   0.00    0.0   0.00   0.00   0.00   0.00   0.00   0.00   0.00   0.00   0.00   0.00   0.00       0       0
 2000 241     9     6    0.0      0   0.00      0      0      0      0      0      0     0.0  0.000      0      0  0.000  0.000  0.000  0.000    0.00   0.00   0.00      0      0    0.0   0.00   0.00    0.0   0.00   0.00   0.00   0.00   0.00   0.00   0.00   0.00   0.00   0.00   0.00       0       0
 2000 242    10     7    0.0      0   0.00      0      0      0      0      0      0     0.0  0.000      0      0  0.000  0.000  0.000  0.000    0.00   0.00   0.00      0      0    0.0   0.00   0.00    0.0   0.00   0.00   0.00   0.00   0.00   0.00   0.00   0.00   0.00   0.00   0.00       0       0
 2000 243    11     8    0.0      0   0.00      0      0      0      0      0      0     0.0  0.000      0      0  0.000  0.000  0.000  0.000    0.00   0.00   0.00      0      0    0.0   0.00   0.00    0.0   0.00   0.00   0.00   0.00   0.00   0.00   0.00   0.00   0.00   0.00   0.00       0       0
 2000 244    12     9    0.0      0   0.00      0      0      0      0      0      0     0.0  0.000      0      0  0.000  0.000  0.000  0.000    0.00   0.00   0.00      0      0    0.0   0.00   0.00    0.0   0.00   0.00   0.00   0.00   0.00   0.00   0.00   0.00   0.00   0.00   0.00       0       0
 2000 245    13    10    0.0      0   0.01      3      1      0      4      4      0     0.0  0.000      0      0  0.000  0.000  0.000  0.000    5.70   0.00   0.00      0      0  192.9   0.03   0.03    0.9   0.26   0.04   0.04   0.02   0.00   0.00   0.00   0.00   0.00   0.00   0.00       0       0
 2000 246    14    11    0.0      0   0.01      3      1      0      4      4      0     0.0  0.000      0      0  0.000  0.000  0.000  0.000    5.70   0.00   0.00      0      0  189.6   0.03   0.03    0.9   0.28   0.04   0.04   0.03   0.00   0.00   0.00   0.00   0.00   0.00   0.00       0       0
 2000 247    15    12    0.1      0   0.01      3      1      0      4      4      0     0.0  0.000      0      0  0.000  0.000  0.000  0.000    5.70   0.00   0.00      0      0  186.6   0.03   0.03    0.8   0.31   0.04   0.04   0.03   0.00   0.00   0.00   0.00   0.00   0.00   0.00       0       0
 2000 248    16    13    0.1      0   0.01      3      1      0      4      4      0     0.0  0.000      0      0  0.000  0.000  0.000  0.000    5.70   0.00   0.00      0      0  185.1   0.03   0.03    0.8   0.34   0.04   0.04   0.03   0.00   0.00   0.00   0.00   0.00   0.00   0.00       0       0
 2000 249    17    14    0.1      0   0.01      4      1      0      5      5      0     0.0  0.000      0      0  0.000  0.000  0.000  0.000    5.70   0.00   0.00      0      0  183.9   0.03   0.03    0.8   0.38   0.04   0.04   0.03   0.00   0.00   0.00   0.00   0.00   0.00   0.00       0       0
 2000 250    18    15    0.2      0   0.01      4      1      0      5      5      0     0.0  0.000      0      0  0.000  0.000  0.000  0.000    5.70   0.00   0.00      0      0  183.3   0.03   0.03    0.8   0.42   0.05   0.05   0.04   0.00   0.00   0.00   0.00   0.00   0.00   0.00       0       0
 2000 251    19    16    0.3      0   0.01      4      1      0      6      5      0     0.0  0.000      0      0  0.000  0.000  0.000  0.000    5.70   0.00   0.00      0      0  186.7   0.03   0.03    0.8   0.49   0.05   0.05   0.04   0.00   0.00   0.00   0.00   0.00   0.00   0.00       0       0
 2000 252    20    17    0.4      0   0.01      4      1      0      6      6      0     0.0  0.000      0      0  0.000  0.000  0.000  0.000    5.71   0.00   0.00      0      0  193.0   0.04   0.04    0.8   0.59   0.05   0.06   0.04   0.01   0.00   0.00   0.00   0.00   0.00   0.00       0       0
 2000 253    21    18    0.4      0   0.01      5      1      0      7      6      0     0.0  0.000      0      0  0.000  0.000  0.000  0.000    5.71   0.00   0.00      0      0  201.9   0.04   0.04    0.8   0.67   0.05   0.06   0.04   0.01   0.00   0.00   0.00   0.00   0.00   0.00       0       0
 2000 254    22    19    0.5      0   0.01      5      1      0      7      6      0     0.0  0.000      0      0  0.000  0.000  0.000  0.356    5.71   0.00   0.00      0      0  210.7   0.04   0.04    0.8   0.76   0.06   0.06   0.05   0.01   0.00   0.00   0.00   0.00   0.00   0.00       0       0
 2000 255    23    20    0.6      0   0.01      5      1      0      8      6      0     0.0  0.000      0      0  0.000  0.000  0.000  0.000    5.71   0.00   0.00      0      0  215.4   0.04   0.04    0.8   0.83   0.06   0.06   0.05   0.01   0.00   0.00   0.00   0.00   0.00   0.00       0       1
 2000 256    24    21    0.6      0   0.01      5      2      0      8      7      0     0.0  0.000      0      0  0.000  0.000  0.000  0.000    5.71   0.00   0.00      0      0  213.8   0.05   0.05    0.8   0.86   0.06   0.06   0.05   0.01   0.01   0.00   0.00   0.00   0.00   0.00       0       1
 2000 257    25    22    0.7      0   0.01      5      2      0      8      7      0     0.0  0.000      0      0  0.000  0.000  0.000  0.000    5.71   0.00   0.00      0      0  213.5   0.05   0.05    0.7   0.87   0.06   0.06   0.05   0.01   0.01   0.00   0.00   0.00   0.00   0.00       0       1
 2000 258    26    23    0.7      0   0.01      5      2      0      8      7      0     0.0  0.000      0      0  0.000  0.000  0.000  0.098    5.71   0.00   0.00      0      0  212.8   0.05   0.05    0.7   0.88   0.06   0.06   0.05   0.01   0.01   0.00   0.00   0.00   0.00   0.00       0       1
 2000 259    27    24    0.7      0   0.01      5      2      0      8      7      0     0.0  0.000      0      0  0.000  0.000  0.000  0.000    5.71   0.00   0.00      0      0  212.2   0.05   0.05    0.7   0.92   0.06   0.06   0.05   0.01   0.01   0.00   0.00   0.00   0.00   0.00       0       1
 2000 260    28    25    0.8      0   0.01      6      2      0      9      7      0     0.0  0.000      0      0  0.000  0.000  0.000  0.000    5.72   0.00   0.00      0      0  211.0   0.05   0.05    0.7   0.97   0.07   0.06   0.06   0.01   0.01   0.00   0.00   0.00   0.00   0.00       0       1
 2000 261    29    26    0.8      0   0.01      6      2      0      9      8      0     0.0  0.000      0      0  0.000  0.000  0.000  0.000    5.72   0.00   0.00      0      0  210.6   0.05   0.05    0.7   1.01   0.07   0.07   0.06   0.01   0.01   0.00   0.00   0.00   0.00   0.00       0       1
 2000 262    30    27    0.9      0   0.01      6      2      0     10      8      0     0.0  0.000      0      0  0.000  0.000  0.000  0.006    5.72   0.00   0.00      0      0  215.1   0.05   0.05    0.7   1.08   0.07   0.07   0.06   0.01   0.01   0.00   0.00   0.00   0.00   0.00       0       1
 2000 263    31    28    1.0      0   0.01      6      2      0     10      8      0     0.0  0.000      0      0  0.000  0.000  0.000  0.094    5.72   0.00   0.00      0      0  218.7   0.05   0.05    0.7   1.16   0.07   0.07   0.06   0.02   0.01   0.01   0.00   0.00   0.00   0.00       0       1
 2000 264    32    29    1.1      0   0.02      7      2      0     11      9      0     0.0  0.000      0      0  0.000  0.000  0.000  0.051    5.72   0.00   0.00      0      0  229.9   0.06   0.06    0.7   1.24   0.07   0.07   0.06   0.02   0.01   0.01   0.00   0.00   0.00   0.00       0       1
 2000 265    33    30    1.2      0   0.02      7      2      0     11     10      0     0.0  0.000      0      0  0.000  0.000  0.000  0.000    5.72   0.00   0.00      0      0  233.3   0.06   0.06    0.7   1.25   0.08   0.07   0.06   0.02   0.01   0.01   0.00   0.00   0.00   0.00       0       1
 2000 266    34    31    1.3      0   0.02      8      3      0     12     11      0     0.0  0.000      0      0  0.000  0.000  0.000  0.000    5.72   0.00   0.00      0      0  224.4   0.06   0.06    0.7   1.25   0.08   0.08   0.07   0.02   0.01   0.01   0.00   0.00   0.00   0.00       0       1
 2000 267    35    32    1.5      0   0.02      9      3      0     12     12      0     0.0  0.000      0      0  0.000  0.000  0.000  0.000    5.72   0.00   0.00      0      0  224.2   0.07   0.07    0.7   1.25   0.08   0.08   0.07   0.02   0.01   0.01   0.00   0.00   0.00   0.00       0       1
 2000 268    36    33    1.5      0   0.02      9      3      0     13     12      0     0.0  0.000      0      0  0.000  0.000  0.000  0.000    5.72   0.00   0.00      0      0  217.4   0.07   0.07    0.7   1.25   0.08   0.08   0.07   0.02   0.01   0.01   0.00   0.00   0.00   0.00       0       1
 2000 269    37    34    1.5      0   0.02     10      3      0     13     13      0     0.0  0.000      0      0  0.000  0.000  0.000  0.000    5.72   0.00   0.00      0      0  211.7   0.07   0.07    0.7   1.25   0.08   0.08   0.07   0.02   0.02   0.01   0.00   0.00   0.00   0.00       0       1
 2000 270    38    35    1.6      0   0.02     10      3      0     14     14      0     0.0  0.000      0      0  0.000  0.000  0.000  0.000    5.72   0.00   0.00      0      0  206.3   0.07   0.07    0.7   1.25   0.09   0.09   0.08   0.02   0.02   0.01   0.01   0.00   0.00   0.00       0       1
 2000 271    39    36    1.7      0   0.02     11      4      0     15     15      0     0.0  0.000      0      0  0.000  0.000  0.000  0.000    5.72   0.00   0.00      0      0  205.2   0.07   0.07    0.8   1.25   0.09   0.09   0.08   0.02   0.02   0.01   0.01   0.00   0.00   0.00       0       1
 2000 272    40    37    1.9      0   0.03     12      4      0     17     17      0     0.0  0.000      0      0  0.000  0.000  0.000  0.000    5.72   0.00   0.00      0      0  206.8   0.08   0.08    0.8   1.25   0.10   0.10   0.09   0.03   0.02   0.01   0.01   0.00   0.00   0.00       0       1
 2000 273    41    38    2.0      0   0.03     13      5      0     19     18      0     0.0  0.000      0      0  0.000  0.000  0.000  0.000    5.72   0.00   0.00      0      0  211.3   0.08   0.08    0.9   1.25   0.11   0.11   0.10   0.03   0.02   0.02   0.01   0.00   0.00   0.00       0       1
 2000 274    42    39    2.2      0   0.03     15      6      0     20     20      0     0.0  0.000      0      0  0.000  0.000  0.000  0.010    5.72   0.00   0.00      0      0  218.9   0.09   0.09    1.0   1.25   0.12   0.11   0.10   0.03   0.03   0.02   0.01   0.01   0.00   0.00       0       2
 2000 275    43    40    2.4      0   0.04     16      6      0     22     23      0     0.0  0.000      0      0  0.000  0.000  0.000  0.000    5.72   0.00   0.00      0      0  227.0   0.10   0.10    1.1   1.25   0.12   0.12   0.11   0.04   0.03   0.02   0.01   0.01   0.00   0.00       0       2
 2000 276    44    41    2.6      0   0.04     17      7      0     23     24      0     0.0  0.000      0      0  0.000  0.000  0.000  0.011    5.72   0.00   0.00      0      0  236.1   0.11   0.10    1.1   1.25   0.13   0.12   0.12   0.04   0.03   0.02   0.01   0.01   0.00   0.00       0       2
 2000 277    45    42    2.7      0   0.04     18      7      0     24     25      0     0.0  0.000      0      0  0.000  0.000  0.000  0.079    5.72   0.00   0.00      0      0  241.2   0.11   0.11    1.2   1.25   0.13   0.13   0.12   0.04   0.03   0.03   0.02   0.01   0.00   0.00       0       2
 2000 278    46    43    2.8      0   0.05     19      8      0     26     28      0     0.0  0.000      0      0  0.000  0.000  0.000  0.000    5.72   0.00   0.00      0      0  237.1   0.12   0.11    1.2   1.25   0.14   0.13   0.13   0.04   0.04   0.03   0.02   0.01   0.00   0.00       0       2
 2000 279    47    44    2.9      0   0.05     21      9      0     28     30      0     0.0  0.000      0      0  0.000  0.000  0.000  0.000    5.72   0.00   0.00      0      0  230.5   0.12   0.12    1.3   1.25   0.15   0.14   0.14   0.05   0.04   0.03   0.02   0.01   0.00   0.00       0       2
 2000 280    48    45    3.0      0   0.05     22     11      0     30     32      0     0.0  0.000      0      0  0.000  0.000  0.000  0.000    5.72   0.00   0.00      0      0  224.7   0.12   0.12    1.4   1.25   0.16   0.15   0.14   0.05   0.04   0.03   0.02   0.01   0.00   0.00       0       2
 2000 281    49    46    3.1      0   0.05     24     12      0     32     36      0     0.0  0.000      0      0  0.000  0.000  0.000  0.000    5.72   0.00   0.00      0      0  220.0   0.13   0.12    1.5   1.25   0.17   0.16   0.15   0.06   0.05   0.04   0.02   0.01   0.00   0.00       0       2
 2000 282    50    47    3.3      0   0.06     27     13      0     35     40      0     0.0  0.000      0      0  0.000  0.000  0.000  0.000    5.72   0.00   0.00      0      0  217.6   0.13   0.13    1.6   1.25   0.18   0.17   0.17   0.06   0.05   0.04   0.03   0.01   0.00   0.00       0       3
 2000 283    51    48    3.4      0   0.06     28     14      0     35     42      0     0.0  0.000      0      0  0.000  0.000  0.000  0.021    5.72   0.00   0.00      0      0  222.0   0.13   0.13    1.6   1.25   0.18   0.18   0.17   0.06   0.05   0.04   0.03   0.01   0.00   0.00       0       3
 2000 284    52    49    3.5      0   0.07     30     15      0     38     46      0     0.0  0.000      0      0  0.000  0.000  0.000  0.000    5.72   0.00   0.00      0      0  215.5   0.14   0.14    1.7   1.25   0.19   0.19   0.18   0.07   0.06   0.04   0.03   0.01   0.00   0.00       0       3
 2000 285    53    50    3.6      0   0.07     33     18      0     41     50      0     0.0  0.000      0      0  0.000  0.000  0.000  0.000    5.72   0.00   0.00      0      0  212.0   0.14   0.14    1.8   1.25   0.21   0.20   0.19   0.07   0.06   0.05   0.03   0.02   0.00   0.00       0       3
 2000 286    54    51    3.8      0   0.08     36     21      0     46     56      0     0.0  0.000      0      0  0.000  0.000  0.000  0.000    5.72   0.00   0.00      0      0  218.7   0.15   0.14    2.0   1.25   0.23   0.22   0.21   0.08   0.07   0.06   0.04   0.02   0.00   0.00       0       3
 2000 287    55    52    4.0      0   0.08     38     24      0     50     62      0     0.0  0.000      0      0  0.000  0.000  0.000  0.000    5.72   0.00   0.00      0      0  218.3   0.16   0.15    2.2   1.25   0.24   0.24   0.23   0.09   0.08   0.06   0.04   0.02   0.00   0.00       0       4
 2000 288    56    53    4.1      0   0.09     40     25      0     51     65      0     0.0  0.000      0      0  0.000  0.000  0.000  0.000    5.72   0.00   0.00      0      0  225.4   0.16   0.15    2.2   1.25   0.25   0.24   0.24   0.09   0.08   0.06   0.04   0.02   0.00   0.00       0       4
 2000 289    57    54    4.2      0   0.10     42     26      0     53     68      0     0.0  0.000      0      0  0.000  0.000  0.000  0.000    5.72   0.00   0.00      0      0  230.7   0.17   0.15    2.3   1.25   0.26   0.25   0.24   0.10   0.08   0.07   0.05   0.02   0.00   0.00       0       4
 2000 290    58    55    4.4      0   0.10     44     29      0     56     73      0     0.0  0.000      0      0  0.000  0.000  0.000  0.000    5.73   0.00   0.00      0      0  238.6   0.17   0.15    2.4   1.25   0.27   0.26   0.26   0.10   0.09   0.07   0.05   0.02   0.00   0.00       0       4
 2000 291    59    56    4.6      0   0.11     46     32      0     60     78      0     0.0  0.000      0      0  0.000  0.000  0.000  0.000    5.73   0.00   0.00      0      0  246.9   0.18   0.15    2.6   1.25   0.28   0.28   0.27   0.11   0.09   0.07   0.05   0.03   0.00   0.00       0       5
 2000 292    60    57    4.8      0   0.12     48     35      0     62     83      0     0.0  0.000      0      0  0.000  0.000  0.000  0.000    5.73   0.00   0.00      0      0  257.1   0.19   0.15    2.7   1.25   0.30   0.29   0.28   0.11   0.10   0.08   0.05   0.03   0.00   0.00       0       5
 2000 293    61    58    5.0      0   0.13     50     39      0     66     89      0     0.0  0.000      0      0  0.000  0.000  0.000  0.000    5.73   0.00   0.00      0      0  261.1   0.20   0.15    2.9   1.25   0.31   0.31   0.30   0.12   0.11   0.08   0.06   0.03   0.00   0.00       0       5
 2000 294    62    59    5.2      0   0.15     54     42      0     68     96      0     0.0  0.000      0      0  0.000  0.000  0.000  0.000    5.73   0.00   0.00      0      0  278.2   0.21   0.15    3.0   1.25   0.32   0.32   0.31   0.12   0.11   0.09   0.06   0.03   0.00   0.00       0       6
 2000 295    63    60    5.4      0   0.17     62     48      0     74    110      0     0.0  0.000      0      0  0.000  0.000  0.000  0.000    5.73   0.00   0.00      0      0  282.2   0.22   0.15    3.2   1.25   0.35   0.34   0.33   0.13   0.12   0.09   0.07   0.03   0.00   0.00       0       6
 2000 296    64    61    5.6      0   0.19     66     51      0     76    116      0     0.0  0.000      0      0  0.000  0.000  0.000  0.010    5.73   0.00   0.00      0      0  290.8   0.23   0.15    3.3   1.25   0.36   0.35   0.34   0.14   0.12   0.10   0.07   0.04   0.00   0.00       0       7
 2000 297    65    62    5.7      0   0.21     70     54      0     79    123      0     0.0  0.000      0      0  0.000  0.000  0.000  0.000    5.73   0.00   0.00      0      0  295.3   0.23   0.15    3.4   1.25   0.37   0.36   0.36   0.14   0.13   0.10   0.07   0.04   0.00   0.00       0       7
 2000 298    66    63    5.9      0   0.23     74     58      0     82    132      0     0.0  0.000      0      0  0.000  0.000  0.000  0.000    5.73   0.00   0.00      0      0  304.2   0.24   0.15    3.6   1.25   0.38   0.37   0.37   0.15   0.13   0.11   0.07   0.04   0.00   0.00       0       8
 2000 299    67    64    6.1      0   0.26     82     64      0     87    146      0     0.0  0.000      0      0  0.000  0.000  0.000  0.015    5.73   0.00   0.00      0      0  311.1   0.25   0.15    3.8   1.25   0.40   0.40   0.39   0.16   0.14   0.11   0.08   0.04   0.00   0.00       0       8
 2000 300    68    65    6.3      0   0.29     91     71      0     93    162      0     0.0  0.000      0      0  0.000  0.000  0.000  0.039    5.70   0.00   0.00      0      0  325.2   0.26   0.15    4.1   1.25   0.43   0.43   0.41   0.17   0.15   0.12   0.09   0.04   0.00   0.00       0       9
 2000 301    69    66    6.5      0   0.33    106     85      0    103    190      0     0.0  0.000      0      0  0.000  0.000  0.000  0.000    5.70   0.00   0.00      0      0  311.0   0.27   0.15    4.5   1.25   0.48   0.47   0.46   0.19   0.17   0.13   0.10   0.05   0.00   0.00       0      10
 2000 302    70    67    6.6      0   0.35    119     96      0    113    215      0     0.0  0.000      0      0  0.000  0.000  0.000  0.000    5.70   0.00   0.00      0      0  293.8   0.27   0.15    5.0   1.25   0.52   0.51   0.50   0.21   0.19   0.15   0.11   0.05   0.00   0.00       0      10
 2000 303    71    68    6.7      0   0.37    132    107      0    122    239      0     0.0  0.000      0      0  0.000  0.000  0.000  0.000    5.70   0.00   0.00      0      0  277.9   0.28   0.15    5.4   1.25   0.56   0.55   0.54   0.23   0.20   0.16   0.12   0.06   0.00   0.00       0      10
 2000 304    72    69    6.8      0   0.41    152    125      0    136    277      0     0.0  0.000      0      0  0.000  0.000  0.000  0.000    5.70   0.00   0.00      0      0  268.6   0.28   0.15    6.0   1.25   0.62   0.61   0.60   0.25   0.22   0.18   0.13   0.07   0.00   0.00       0      11
 2000 305    73    70    7.0      0   0.46    174    146      0    152    320      0     0.0  0.000      0      0  0.000  0.000  0.000  0.000    5.71   0.00   0.00      0      0  264.5   0.29   0.15    6.8   1.25   0.69   0.68   0.67   0.28   0.25   0.20   0.15   0.07   0.00   0.00       0      12
 2000 306    74    71    7.2      0   0.51    184    156      0    159    340      0     0.0  0.000      0      0  0.000  0.000  0.000  0.000    5.71   0.00   0.00      0      0  276.7   0.30   0.15    7.1   1.25   0.72   0.71   0.70   0.29   0.26   0.21   0.15   0.08   0.00   0.00       0      13
 2000 307    75    72    7.4      1   0.56    204    176      0    173    380      0     0.0  0.000      0      0  0.000  0.000  0.000  0.000    5.71   0.00   0.00      0      0  275.4   0.31   0.15    7.8   1.25   0.78   0.77   0.76   0.32   0.29   0.23   0.17   0.09   0.00   0.00       0      14
 2000 308    76    73    7.5      1   0.61    229    201      0    191    431      0     0.0  0.000      0      0  0.000  0.000  0.000  0.000    5.70   0.00   0.00      0      0  265.5   0.32   0.15    8.7   1.25   0.85   0.85   0.83   0.35   0.32   0.26   0.18   0.09   0.00   0.00       0      14
 2000 309    77    74    7.7      1   0.65    249    222      0    205    472      0     0.0  0.000      0      0  0.000  0.000  0.000  0.000    5.70   0.00   0.00      0      0  261.4   0.32   0.15    9.4   1.25   0.91   0.91   0.89   0.38   0.34   0.27   0.20   0.10   0.00   0.00       0      15
 2000 310    78    75    7.8      1   0.70    278    253      0    225    531      0     0.0  0.000      0      0  0.000  0.000  0.000  0.000    5.69   0.00   0.00      0      0  253.1   0.33   0.15   10.3   1.25   1.00   1.00   0.98   0.42   0.37   0.30   0.22   0.11   0.00   0.00       0      16
 2000 311    79    76    8.0      1   0.77    310    287      0    247    597      0     0.0  0.000      0      0  0.000  0.000  0.000  0.000    5.69   0.00   0.00      0      0  249.2   0.34   0.15   11.4   1.25   1.10   1.09   1.08   0.46   0.41   0.33   0.24   0.12   0.00   0.00       0      17
 2000 312    80    77    8.2      1   0.84    329    309      0    260    638      0     0.0  0.000      0      0  0.000  0.000  0.000  0.000    5.70   0.00   0.00      0      0  254.5   0.34   0.15   12.1   1.25   1.16   1.15   1.14   0.48   0.43   0.35   0.25   0.13   0.00   0.00       1      19
 2000 313    81    78    8.4      1   0.92    355    340      0    279    694      0     0.0  0.000      0      0  0.000  0.000  0.000  0.000    5.71   0.00   0.00      0      0  258.7   0.35   0.15   13.1   1.25   1.23   1.23   1.21   0.52   0.46   0.38   0.27   0.14   0.00   0.00       3      21
 2000 314    82    79    8.6      1   0.97    370    357      0    289    727      0     0.0  0.000      0      0  0.000  0.000  0.000  0.000    5.72   0.00   0.00      0      0  262.8   0.36   0.15   13.6   1.25   1.28   1.27   1.26   0.54   0.48   0.39   0.28   0.15   0.00   0.00       5      22
 2000 315    83    80    8.8      1   1.04    404    400      0    313    804      0     0.0  0.000      0      0  0.000  0.000  0.000  0.000    5.72   0.00   0.00      0      0  256.5   0.37   0.15   14.8   1.25   1.39   1.38   1.37   0.58   0.52   0.42   0.31   0.16   0.00   0.00       7      24
 2000 316    84    81    9.0      1   1.11    441    448      0    341    889      0     0.0  0.000      0      0  0.000  0.000  0.000  0.000    5.72   0.00   0.00      0      0  252.1   0.38   0.15   16.2   1.25   1.50   1.50   1.48   0.63   0.57   0.46   0.33   0.17   0.00   0.00      10      26
 2000 317    85    82    9.2      1   1.20    480    498      0    368    977      0     0.0  0.000      0      0  0.000  0.000  0.000  0.000    5.72   0.00   0.00      0      0  250.0   0.39   0.15   17.7   1.25   1.62   1.61   1.60   0.68   0.61   0.50   0.36   0.19   0.00   0.00      13      28
 2000 318    86    83    9.3      1   1.25    512    540      0    390   1052      0     0.0  0.000      0      0  0.000  0.000  0.000  0.000    5.73   0.00   0.00      0      0  244.6   0.40   0.15   18.9   1.25   1.72   1.71   1.70   0.73   0.65   0.53   0.38   0.20   0.00   0.00      15      30
 2000 319    87    84    9.4      1   1.27    537    574      0    409   1111      0     0.0  0.000      0      0  0.000  0.000  0.000  0.000    5.75   0.00   0.00      0      0  236.7   0.41   0.15   19.8   1.25   1.80   1.79   1.78   0.76   0.68   0.56   0.40   0.21   0.00   0.00      18      31
 2000 320    88    85    9.5      1   1.29    559    605      0    425   1164      0     0.0  0.000      0      0  0.000  0.000  0.000  0.000    5.77   0.00   0.00      0      0  230.3   0.41   0.15   20.5   1.25   1.87   1.86   1.85   0.79   0.71   0.58   0.42   0.22   0.00   0.00      21      32
 2000 321    89    86    9.6      3   1.33    597    658      0    453   1255      0     0.0  0.000      0      0  0.000  0.000  0.000  0.000    5.77   0.00   0.00      0      0  222.2   0.41   0.15   19.0   1.25   1.99   1.98   1.97   0.84   0.76   0.62   0.45   0.23   0.00   0.00      25      35
 2000 322    90    87    9.8      3   1.38    642    725      0    488   1367      0     0.0  0.000      0      0  0.000  0.000  0.000  0.000    5.75   0.00   0.00      0      0  214.8   0.42   0.15   20.2   1.25   2.14   2.13   2.12   0.91   0.82   0.66   0.48   0.25   0.00   0.00      31      37
 2000 323    91    88    9.9      3   1.44    694    801      0    527   1496      0     0.0  0.000      1      6  0.000  0.000  0.000  0.000    5.69   0.00   0.00      0      1  208.0   0.42   0.15   22.9   1.25   2.31   2.30   2.29   0.98   0.88   0.72   0.52   0.27   0.00   0.00      34      40
 2000 324    92    89   10.2      3   1.51    744    879      0    564   1627      0     0.0  0.000      3     21  0.000  0.000  0.000  0.000    5.60   0.00   0.00      0      3  203.4   0.43   0.15   26.4   1.25   2.47   2.47   2.45   1.05   0.94   0.77   0.56   0.29   0.00   0.00      38      43
 2000 325    93    90   10.3      3   1.55    788    948      0    597   1744      0     0.0  0.000      8     36  0.000  0.000  0.000  0.000    5.52   0.00   0.00      0      8  197.1   0.44   0.15   30.6   1.25   2.61   2.61   2.60   1.11   1.00   0.82   0.59   0.30   0.00   0.00      41      46
 2000 326    94    91   10.5      3   1.61    840   1031      0    636   1885      0     0.0  0.000     13     46  0.000  0.000  0.000  0.000    5.42   0.00   0.01      0     13  191.2   0.45   0.15   35.6   1.25   2.78   2.78   2.76   1.18   1.07   0.87   0.63   0.32   0.00   0.00      45      49
 2000 327    95    92   10.7      3   1.67    885   1107      0    669   2013      0     0.0  0.000     21     57  0.000  0.000  0.000  0.000    5.35   0.00   0.01      0     21  189.1   0.45   0.15   41.4   1.25   2.93   2.92   2.91   1.25   1.12   0.92   0.66   0.34   0.00   0.00      49      53
 2000 328    96    93   10.9      3   1.74    929   1182      0    701   2144      0     0.0  0.000     32     83  0.000  0.000  0.000  0.000    5.30   0.00   0.02      0     32  187.3   0.47   0.15   48.2   1.25   3.07   3.07   3.05   1.31   1.18   0.96   0.70   0.36   0.00   0.00      54      58
 2000 329    97    94   11.1      3   1.77    955   1229      0    721   2231      0     0.0  0.000     46    107  0.000  0.000  0.000  0.000    5.28   0.00   0.02      0     46  185.4   0.48   0.15   48.4   1.25   3.16   3.15   3.14   1.35   1.21   0.99   0.72   0.37   0.00   0.00      58      62
 2000 330    98    95   11.2      3   1.80    997   1305      0    755   2363      0     0.0  0.000     60    126  0.000  0.000  0.028  0.000    5.21   0.00   0.03      0     60  180.8   0.48   0.15   56.1   1.25   3.31   3.30   3.29   1.41   1.27   1.04   0.75   0.39   0.00   0.00      61      65
 2000 331    99    96   11.4      3   1.84   1043   1400      0    802   2521      0     0.0  0.000     78    135  0.000  0.000  0.103  0.000    5.11   0.00   0.03      0     78  176.5   0.49   0.15   65.2   1.25   3.51   3.51   3.49   1.50   1.35   1.10   0.80   0.41   0.00   0.00      66      69
 2000 332   100    97   11.6      3   1.88   1066   1444      0    818   2609      0     0.0  0.000     99    154  0.000  0.000  0.000  0.000    5.09   0.00   0.04      0     99  176.6   0.50   0.15   65.4   1.25   3.58   3.58   3.57   1.53   1.38   1.13   0.81   0.42   0.00   0.00      71      75
 2000 333   101    98   11.8      3   1.91   1077   1470      0    827   2672      0     0.0  0.000    125    187  0.000  0.000  0.000  0.000    5.07   0.00   0.05      0    125  177.1   0.51   0.15   65.5   1.25   3.62   3.62   3.60   1.55   1.39   1.14   0.82   0.43   0.00   0.00      75      80
 2000 334   102    99   12.0      3   1.92   1096   1510      0    841   2759      0     0.0  0.000    153    216  0.000  0.000  0.000  0.000    5.05   0.00   0.06      0    153  175.6   0.52   0.15   66.6   1.25   3.69   3.68   3.67   1.57   1.42   1.16   0.84   0.43   0.00   0.00      79      83
 2000 335   103   100   12.1      3   1.94   1132   1587      0    873   2899      0     0.0  0.000    181    238  0.000  0.000  0.071  0.000    4.99   0.00   0.06      0    181  171.7   0.52   0.15   76.6   1.25   3.80   3.82   3.81   1.64   1.47   1.20   0.87   0.45   0.00   0.00      82      87
 2000 336   104   101   12.3      3   1.96   1167   1657      0    899   3033      0     0.0  0.000    209    250  0.000  0.000  0.000  0.000    4.96   0.00   0.07      0    209  168.3   0.53   0.15   83.9   1.25   3.85   3.94   3.93   1.69   1.52   1.24   0.90   0.46   0.00   0.00      86      92
 2000 337   105   102   12.4      3   1.99   1211   1751      0    930   3204      0     0.0  0.000    241    256  0.000  0.000  0.000  0.000    4.90   0.00   0.08      0    241  164.4   0.54   0.15   96.1   1.25   3.87   4.09   4.08   1.75   1.58   1.29   0.93   0.48   0.00   0.00      90      98
 2000 338   106   103   12.6      3   2.02   1242   1818      0    952   3337      0     0.0  0.000    276    275  0.000  0.000  0.000  0.000    4.89   0.00   0.08      0    276  162.3   0.54   0.15   97.3   1.25   3.96   4.19   4.18   1.79   1.61   1.32   0.95   0.49   0.00   0.00      95     104
 2000 339   107   104   12.8      3   2.03   1256   1853      0    963   3426      0     0.0  0.000    317    305  0.000  0.000  0.000  0.000    4.86   0.00   0.09      0    317  161.5   0.55   0.15   97.9   1.25   4.01   4.24   4.22   1.81   1.63   1.33   0.97   0.50   0.00   0.00     100     109
 2000 340   108   105   13.0      3   2.04   1290   1926      0    986   3573      0     0.0  0.000    358    333  0.000  0.000  0.000  0.000    4.86   0.00   0.10      0    358  158.5   0.56   0.15  100.1   1.25   4.12   4.34   4.33   1.86   1.67   1.37   0.99   0.51   0.00   0.00     104     113
 2000 341   109   106   13.2      3   2.06   1324   2005      0   1011   3732      0     0.0  0.000    403    366  0.000  0.000  0.000  0.000    4.83   0.00   0.11      0    403  155.6   0.57   0.15  109.7   1.25   4.13   4.46   4.45   1.91   1.72   1.41   1.02   0.53   0.00   0.00     109     121
 2000 342   110   107   13.4      3   2.08   1353   2076      0   1030   3884      0     0.0  0.000    454    397  0.000  0.000  0.000  0.000    4.82   0.00   0.12      0    454  153.5   0.58   0.15  110.0   1.25   4.03   4.56   4.55   1.95   1.76   1.44   1.04   0.54   0.00   0.00     115     130
[...]
 2003 340   108   105   13.4      3   2.22   1266   1974      0   1049   3725      0     0.0  0.000    485    486  0.000  0.000  0.000  0.000    4.69   0.00   0.13      0    485  175.2   0.61   0.15   87.9   1.25   4.59   4.59   4.57   1.96   1.77   1.45   1.05   0.54   0.00   0.00     113     137
 2003 341   109   106   13.6      3   2.23   1288   2025      0   1065   3864      0     0.0  0.000    551    514  0.000  0.000  0.000  0.000    4.67   0.00   0.14      0    551  173.3   0.62   0.15   88.1   1.25   4.66   4.66   4.64   2.00   1.80   1.47   1.06   0.55   0.00   0.00     118     144
 2003 342   110   107   13.8      3   2.23   1294   2045      0   1070   3962      0     0.0  0.000    623    557  0.000  0.000  0.000  0.000    4.64   0.00   0.16      0    623  172.6   0.63   0.15   88.3   1.25   4.69   4.68   4.66   2.00   1.81   1.48   1.07   0.55   0.00   0.00     122     149
 2003 343   111   108   13.9      3   2.24   1316   2096      0   1085   4105      0     0.0  0.000    692    581  0.000  0.000  0.000  0.000    4.63   0.00   0.17      0    692  170.0   0.64   0.15   98.6   1.25   4.76   4.75   4.73   2.04   1.84   1.50   1.08   0.56   0.00   0.00     126     154
 2003 344   112   109   14.1      3   2.25   1345   2166      0   1106   4275      0     0.0  0.000    764    607  0.000  0.000  0.000  0.000    4.61   0.00   0.18      0    764  166.9   0.64   0.15  109.0   1.25   4.85   4.84   4.83   2.08   1.87   1.53   1.11   0.57   0.00   0.00     131     160
 2003 345   113   110   14.3      5   2.25   1361   2209      0   1117   4409      0     0.0  0.000    838    629  0.000  0.000  0.000  0.000    4.60   0.00   0.19      0    838  165.2   0.65   0.15  109.5   1.25   4.90   4.90   4.88   2.10   1.89   1.54   1.12   0.58   0.00   0.00     135     167
 2003 346   114   111   14.4      5   2.25   1382   2265      0   1134   4553      2     0.0  0.000    906    664  0.000  0.000  0.000  0.000    4.58   0.00   0.20      0    906  162.7   0.66   0.15  110.4   1.25   4.97   4.97   4.95   2.13   1.92   1.57   1.13   0.59   0.00   0.00     142     172
 2003 347   115   112   14.6      5   2.25   1396   2307      0   1145   4664     30     0.4  0.000    961    685  0.000  0.000  0.000  0.000    4.55   0.01   0.21      0    961  161.0   0.66   0.15  110.8   1.25   5.02   5.02   5.00   2.15   1.94   1.58   1.15   0.59   0.00   0.00     177     179
 2003 348   116   113   14.8      5   2.25   1414   2360      2   1157   4793     58     4.0  0.000   1019    710  0.000  0.000  0.000  0.000    4.54   0.23   0.21      0   1019  158.9   0.67   0.15  114.2   1.25   5.07   5.08   5.06   2.18   1.96   1.60   1.16   0.60   0.00   0.00     211     187
 2003 349   117   114   15.0      5   2.23   1406   2351      6   1152   4865     58    11.1  0.001   1109    763  0.000  0.000  0.000  0.000    4.52   0.58   0.23      0   1109  159.0   0.68   0.15  114.4   1.25   5.04   5.06   5.04   2.17   1.96   1.60   1.16   0.60   0.00   0.00     217     194
 2003 350   118   115   15.2      5   2.23   1418   2389     10   1161   4957     93    10.8  0.002   1150    775  0.000  0.000  0.000  0.000    4.52   0.87   0.23      0   1150  157.3   0.69   0.15  115.9   1.25   5.09   5.10   5.08   2.19   1.97   1.61   1.16   0.60   0.00   0.00     263     199
 2003 351   119   116   15.3      5   2.22   1437   2445     16   1176   5089    113    14.0  0.003   1207    780  0.000  0.000  0.000  0.000    4.51   1.32   0.24      0   1207  154.8   0.69   0.15  117.0   1.25   5.15   5.17   5.15   2.21   2.00   1.63   1.18   0.61   0.00   0.00     290     205
 2003 352   120   117   15.5      5   2.22   1458   2510     23   1192   5228    146    16.0  0.004   1261    800  0.000  0.000  0.000  0.000    4.50   1.85   0.24      0   1261  152.2   0.70   0.15  117.9   1.25   5.23   5.24   5.22   2.25   2.03   1.65   1.20   0.62   0.00   0.00     330     211
 2003 353   121   118   15.7      5   2.21   1463   2534     34   1196   5284    207    16.3  0.006   1287    805  0.000  0.000  0.000  0.000    4.49   2.62   0.24      0   1287  151.0   0.71   0.15  118.5   1.25   5.24   5.26   5.24   2.25   2.03   1.66   1.20   0.62   0.00   0.00     409     220
 2003 354   122   119   16.0      5   2.19   1450   2514     49   1187   5321    237    20.8  0.009   1358    839  0.000  0.000  0.000  0.000    4.47   3.62   0.26      0   1358  151.4   0.72   0.15  118.7   1.25   5.21   5.22   5.21   2.24   2.02   1.65   1.19   0.62   0.00   0.00     454     229
 2003 355   123   120   16.2      5   2.19   1459   2549     66   1192   5430    267    24.8  0.012   1422    859  0.000  0.000  0.000  0.000    4.48   4.65   0.26      0   1422  149.8   0.73   0.15  118.8   1.25   5.24   5.25   5.23   2.25   2.03   1.66   1.20   0.62   0.00   0.00     500     238
 2003 356   124   121   16.4      5   2.17   1451   2543     84   1188   5524    267    31.6  0.015   1529    916  0.000  0.000  0.000  0.000    4.45   5.50   0.28      0   1529  149.7   0.74   0.15  118.9   1.25   5.22   5.24   5.22   2.24   2.02   1.65   1.20   0.62   0.00   0.00     507     244
 2003 357   125   122   16.5      5   2.16   1456   2571    101   1194   5606    307    33.0  0.018   1578    922  0.000  0.000  0.000  0.000    4.43   6.42   0.28      0   1578  148.3   0.74   0.15  119.2   1.25   5.25   5.26   5.25   2.26   2.04   1.66   1.20   0.62   0.00   0.00     563     250
 2003 358   126   123   16.7      5   2.15   1459   2594    122   1197   5709    334    36.7  0.021   1656    933  0.000  0.000  0.000  0.000    4.42   7.39   0.29      0   1656  147.1   0.75   0.15  119.5   1.25   5.27   5.28   5.27   2.26   2.04   1.67   1.21   0.62   0.00   0.00     603     257
 2003 359   127   124   16.9      5   2.13   1467   2630    146   1202   5816    372    39.3  0.025   1719    941  0.000  0.000  0.000  0.000    4.42   8.52   0.30      0   1719  145.5   0.75   0.15  119.7   1.25   5.29   5.30   5.29   2.27   2.05   1.68   1.21   0.63   0.00   0.00     660     267
 2003 360   128   125   17.1      5   2.12   1471   2655    173   1205   5935    391    44.2  0.029   1810    982  0.000  0.000  0.000  0.000    4.41   9.55   0.30      0   1810  144.2   0.76   0.15  119.8   1.25   5.31   5.32   5.31   2.28   2.06   1.68   1.22   0.63   0.00   0.00     691     276
 2003 361   129   126   17.3      5   2.10   1455   2630    202   1195   5915    447    45.2  0.034   1830   1006  0.000  0.000  0.000  0.001    4.38  11.03   0.31      0   1830  144.6   0.77   0.15  119.8   1.25   5.26   5.28   5.27   2.26   2.04   1.67   1.21   0.62   0.00   0.00     772     285
 2003 362   130   127   17.5      5   2.09   1441   2607    234   1187   5944    492    47.5  0.039   1896   1013  0.000  0.000  0.000  0.000    4.36  12.34   0.32      0   1896  145.0   0.78   0.15  119.9   1.25   5.23   5.25   5.24   2.25   2.03   1.66   1.20   0.62   0.00   0.00     838     292
 2003 363   131   128   17.5      5   2.07   1441   2624    265   1190   6025    527    50.2  0.044   1960   1028  0.000  0.000  0.000  0.000    4.33  13.50   0.33      0   1960  144.0   0.78   0.15  120.0   1.25   5.25   5.27   5.25   2.26   2.04   1.66   1.20   0.62   0.00   0.00     888     297
 2003 364   132   129   17.5      5   2.06   1445   2648    299   1194   6134    558    53.6  0.049   2041   1041  0.000  0.000  0.000  0.000    4.33  14.67   0.33      0   2041  142.8   0.79   0.15  120.2   1.25   5.26   5.29   5.27   2.27   2.04   1.67   1.21   0.62   0.00   0.00     933     305
 2003 365   133   130   17.5      5   2.05   1439   2650    338   1193   6202    606    55.8  0.055   2113   1055  0.000  0.000  0.000  0.000    4.31  16.01   0.34      0   2113  142.3   0.80   0.15  120.5   1.25   5.26   5.28   5.27   2.27   2.04   1.67   1.21   0.62   0.00   0.00     996     311
 2004 001   134   131   17.5      5   2.03   1440   2669    375   1196   6306    632    59.3  0.059   2197   1075  0.000  0.000  0.000  0.000    4.28  17.08   0.35      0   2197  141.2   0.80   0.15  122.5   1.25   5.28   5.30   5.29   2.27   2.05   1.68   1.21   0.63   0.00   0.00    1034     317
 2004 002   135   132   17.5      5   2.02   1442   2690    416   1200   6417    662    62.8  0.065   2285   1089  0.000  0.000  0.000  0.000    4.27  18.21   0.36      0   2285  140.1   0.81   0.15  129.8   1.25   5.30   5.32   5.31   2.28   2.06   1.68   1.22   0.63   0.00   0.00    1076     324
 2004 003   136   133   17.5      5   2.00   1438   2700    462   1200   6524    687    67.3  0.071   2385   1110  0.000  0.000  0.000  0.000    4.24  19.36   0.37      0   2385  139.2   0.81   0.15  129.8   1.25   5.31   5.33   5.31   2.28   2.06   1.68   1.22   0.63   0.00   0.00    1111     333
 2004 004   137   134   17.5      5   1.99   1427   2686    511   1193   6542    764    66.9  0.078   2429   1115  0.000  0.000  0.000  0.000    4.21  21.02   0.37      0   2429  139.2   0.81   0.15  129.8   1.25   5.28   5.30   5.29   2.27   2.05   1.67   1.21   0.63   0.00   0.00    1206     342
 2004 005   138   135   17.5      5   1.97   1413   2666    564   1184   6597    806    70.0  0.085   2518   1135  0.000  0.000  0.000  0.000    4.18  22.38   0.38      0   2518  139.3   0.81   0.15  129.8   1.25   5.23   5.27   5.25   2.26   2.04   1.66   1.20   0.62   0.00   0.00    1259     353
 2004 006   139   136   17.5      5   1.95   1401   2653    618   1177   6638    866    71.4  0.093   2585   1145  0.000  0.000  0.000  0.000    4.15  23.91   0.39      0   2585  139.3   0.81   0.15  129.8   1.25   5.17   5.24   5.23   2.25   2.03   1.66   1.20   0.62   0.00   0.00    1331     363
 2004 007   140   137   17.5      5   1.93   1383   2623    678   1166   6671    914    74.2  0.102   2666   1160  0.000  0.000  0.000  0.000    4.11  25.43   0.40      0   2666  139.8   0.81   0.15  129.8   1.25   5.13   5.20   5.18   2.23   2.01   1.64   1.19   0.61   0.00   0.00    1388     373
 2004 008   141   138   17.5      5   1.91   1367   2601    743   1157   6742    955    77.8  0.110   2773   1174  0.000  0.000  0.000  0.000    4.07  26.80   0.41      0   2773  140.0   0.81   0.15  129.8   1.25   5.10   5.16   5.15   2.21   2.00   1.63   1.18   0.61   0.00   0.00    1434     383
 2004 009   142   139   17.5      5   1.90   1350   2573    812   1146   6808    996    81.5  0.119   2885   1193  0.000  0.000  0.000  0.000    4.03  28.13   0.42      0   2885  140.5   0.81   0.15  129.8   1.25   5.05   5.12   5.11   2.20   1.98   1.62   1.17   0.61   0.00   0.00    1476     393
 2004 010   143   140   17.5      5   1.88   1332   2544    883   1135   6813   1101    80.2  0.130   2937   1187  0.000  0.000  0.000  0.000    3.99  30.07   0.43      0   2937  141.0   0.81   0.15  129.8   1.25   4.99   5.08   5.06   2.18   1.96   1.60   1.16   0.60   0.00   0.00    1570     403
 2004 011   144   141   17.5      5   1.86   1315   2517    966   1124   6866   1173    82.4  0.141   3034   1189  0.000  0.000  0.000  0.000    3.95  31.84   0.44      0   3034  141.5   0.81   0.15  129.8   1.25   4.92   5.04   5.02   2.16   1.95   1.59   1.15   0.60   0.00   0.00    1634     413
 2004 012   145   142   17.5      5   1.84   1298   2490   1054   1113   6925   1206    87.4  0.152   3137   1206  0.000  0.000  0.000  0.000    3.91  33.59   0.45      0   3137  141.9   0.81   0.15  129.8   1.25   4.82   5.00   4.99   2.14   1.93   1.58   1.14   0.59   0.00   0.00    1666     422
 2004 013   146   143   17.5      5   1.82   1281   2465   1143   1103   6979   1274    89.7  0.164   3233   1207  0.000  0.000  0.000  0.000    3.86  35.37   0.46      0   3233  142.4   0.81   0.15  129.8   1.25   4.72   4.96   4.95   2.13   1.92   1.57   1.13   0.59   0.00   0.00    1716     432
 2004 014   147   144   17.5      5   1.81   1264   2439   1237   1092   7044   1343    92.1  0.176   3341   1209  0.000  0.000  0.000  0.000    3.82  37.03   0.47      0   3341  142.9   0.81   0.15  129.8   1.25   4.61   4.92   4.91   2.11   1.90   1.56   1.13   0.58   0.00   0.00    1765     442
 2004 015   148   145   17.5      5   1.79   1248   2415   1337   1082   7095   1415    94.4  0.188   3432   1210  0.000  0.000  0.000  0.000    3.77  38.94   0.48      0   3432  143.3   0.81   0.15  129.8   1.25   4.51   4.87   4.87   2.10   1.89   1.55   1.12   0.58   0.00   0.00    1815     451
 2004 016   149   146   17.5      5   1.77   1232   2392   1437   1071   7181   1456    98.7  0.200   3556   1215  0.000  0.000  0.000  0.000    3.73  40.42   0.50      0   3556  143.7   0.81   0.15  129.8   1.25   4.41   4.82   4.83   2.08   1.88   1.54   1.11   0.57   0.00   0.00    1847     461
 2004 017   150   147   17.5      5   1.75   1216   2370   1542   1060   7209   1501   102.7  0.214   3622   1216  0.000  0.000  0.000  0.000    3.68  42.56   0.50      0   3622  144.1   0.81   0.15  129.8   1.25   4.32   4.77   4.78   2.07   1.87   1.52   1.10   0.57   0.00   0.00    1880     471
 2004 018   151   148   17.5      5   1.73   1200   2348   1642   1048   7210   1592   103.1  0.228   3663   1195  0.000  0.000  0.000  0.000    3.62  44.82   0.51      0   3663  144.6   0.81   0.15  129.8   1.25   4.22   4.71   4.73   2.05   1.85   1.51   1.09   0.57   0.00   0.00    1935     482
 2004 019   152   149   17.5      5   1.72   1184   2327   1749   1037   7248   1639   106.8  0.241   3737   1185  0.000  0.000  0.000  0.000    3.56  46.82   0.52      0   3737  144.9   0.81   0.15  129.8   1.25   4.13   4.65   4.68   2.04   1.84   1.50   1.09   0.56   0.00   0.00    1965     493
 2004 020   153   150   17.5      5   1.70   1167   2306   1863   1024   7294   1681   110.9  0.255   3821   1177  0.000  0.000  0.000  0.000    3.50  48.76   0.52      0   3821  145.3   0.81   0.15  129.8   1.25   4.03   4.58   4.62   2.02   1.83   1.49   1.08   0.56   0.00   0.00    1990     504
 2004 021   154   151   17.5      5   1.68   1149   2282   1989   1011   7346   1791   111.0  0.271   3915   1158  0.000  0.195  0.000  0.000    3.44  50.81   0.53      0   3915  145.8   0.81   0.15  129.4   1.25   3.94   4.51   4.56   2.01   1.81   1.48   1.07   0.55   0.00   0.00    2032     517
 2004 022   155   152   17.5      5   1.66   1134   2264   2120    998   7417   1853   114.5  0.286   4020   1148  0.000  0.325  0.000  0.000    3.37  52.75   0.54      0   4020  146.1   0.81   0.15  127.8   1.25   3.85   4.43   4.49   1.99   1.80   1.47   1.06   0.55   0.00   0.00    2055     532
 2004 023   156   153   17.5      5   1.64   1116   2241   2239    984   7470   1912   117.1  0.300   4113   1139  0.079  0.386  0.000  0.000    3.31  54.44   0.55      0   4113  146.6   0.81   0.15  125.5   1.25   3.76   4.36   4.42   1.97   1.78   1.45   1.05   0.54   0.00   0.00    2077     547
 2004 024   157   154   17.5      5   1.62   1098   2217   2337    970   7504   1970   118.7  0.312   4188   1131  0.291  0.528  0.000  0.000    3.23  55.81   0.56      0   4188  147.0   0.81   0.15  121.7   1.25   3.67   4.28   4.34   1.96   1.77   1.44   1.04   0.54   0.00   0.00    2097     564
 2004 025   158   155   17.5      5   1.59   1081   2195   2425    957   7532   2018   120.2  0.322   4256   1124  0.397  0.598  0.000  0.000    3.16  56.99   0.57      0   4256  147.5   0.81   0.15  117.2   1.25   3.59   4.20   4.27   1.94   1.75   1.43   1.04   0.54   0.00   0.00    2115     581
 2004 026   159   156   17.5      5   1.57   1064   2174   2500    944   7547   2058   121.5  0.331   4309   1109  0.486  0.658  0.000  0.000    3.08  58.02   0.57      0   4309  147.9   0.81   0.15  112.3   1.25   3.51   4.12   4.19   1.92   1.74   1.42   1.03   0.53   0.00   0.00    2134     599
 2004 027   160   157   17.5      5   1.55   1042   2150   2568    931   7549   2077   123.6  0.340   4357   1088  0.539  0.693  0.000  0.000    3.01  58.93   0.58      0   4357  148.4   0.81   0.15  104.9   1.25   3.43   4.04   4.11   1.90   1.73   1.41   1.02   0.53   0.00   0.00    2159     619
 2004 028   161   158   17.5      7   1.50   1009   2120   2639    917   7541   2090   126.3  0.350   4413   1068  0.230  0.486  0.000  0.000    2.94  59.81   0.59      0   4413  148.8   0.81   0.15  102.0   1.25   3.35   3.96   4.04   1.88   1.71   1.40   1.01   0.52   0.00   0.00    2201     635
 2004 029   162   159   17.5      7   1.19    799   1989   2675    902   7224   2103   127.2  0.370   4436   1046  0.632  0.755  0.000  0.000    2.87  60.30   0.61      0   4436  149.4   0.81   0.15   94.9   1.25   3.28   3.87   3.95   1.86   1.69   1.39   1.01   0.52   0.00   0.00    2525     656
 2004 030   163   160   17.5      7   0.95    635   1885   2695    888   6968   2110   127.7  0.387   4448   1029  0.637  0.758  0.000  0.000    2.84  60.57   0.64      0   4448  149.9   0.81   0.15   88.3   1.25   3.20   3.79   3.87   1.83   1.68   1.38   1.00   0.52   0.00   0.00    2781     677
 2004 031   164   161   17.5      7   0.76    504   1800   2725    878   6775   2110   129.1  0.402   4472    988  0.307  0.538  0.000  0.013    2.78  60.93   0.66      0   4472  150.4   0.81   0.15   82.1   1.25   3.17   3.72   3.84   1.81   1.66   1.37   0.99   0.51   0.00   0.00    2982     693
 2004 032   165   162   17.5      7   0.60    399   1731   2778    869   6647   2110   131.6  0.418   4517    972  0.000  0.000  0.000  0.000    2.70  61.50   0.68      0   4517  150.9   0.81   0.15   76.3   1.25   3.14   3.69   3.80   1.78   1.64   1.35   0.98   0.51   0.00   0.00    3141     707
 2004 033   166   163   17.5      7   0.48    317   1675   2819    861   6543   2110   133.6  0.431   4551    959  0.000  0.000  0.000  0.000    2.64  61.94   0.70      0   4551  151.4   0.81   0.15   71.0   1.25   3.12   3.66   3.77   1.76   1.62   1.34   0.97   0.50   0.00   0.00    3267     720
 2004 034   167   164   17.5      7   0.38    252   1632   2829    855   6443   2110   134.1  0.439   4559    959  0.000  0.000  0.000  0.000    2.62  62.06   0.71      0   4559  151.8   0.81   0.15   66.0   1.25   3.10   3.64   3.75   1.74   1.60   1.33   0.96   0.50   0.00   0.00    3367     732
 2004 035   168   165   17.5      7   0.30    200   1596   2848    847   6369   2110   135.0  0.447   4573    959  0.000  0.000  0.000  0.000    2.57  62.28   0.72      0   4573  152.2   0.81   0.15   61.4   1.25   3.07   3.61   3.72   1.72   1.58   1.32   0.96   0.49   0.00   0.00    3447     744
 2004 036   169   166   17.5      7   0.24    159   1566   2866    839   6311   2110   135.8  0.454   4586    959  0.000  0.000  0.000  0.000    2.53  62.49   0.73      0   4586  152.6   0.81   0.15   57.1   1.25   3.05   3.58   3.69   1.70   1.57   1.31   0.95   0.49   0.00   0.00    3510     756
 2004 037   170   167   17.5      7   0.19    127   1543   2878    833   6265   2110   136.4  0.459   4595    959  0.000  0.000  0.000  0.000    2.50  62.64   0.73      0   4595  152.9   0.81   0.15   53.1   1.25   3.03   3.56   3.66   1.68   1.55   1.30   0.94   0.49   0.00   0.00    3560     766
 2004 038   171   168   17.5      7   0.15    101   1524   2882    827   6223   2110   136.6  0.463   4598    959  0.000  0.000  0.000  0.000    2.49  62.69   0.74      0   4598  153.2   0.81   0.15   49.4   1.25   3.01   3.53   3.64   1.67   1.54   1.29   0.94   0.48   0.00   0.00    3600     776
 2004 039   172   169   17.5      7   0.12     81   1508   2882    820   6187   2110   136.6  0.466   4598    959  0.000  0.000  0.000  0.000    2.50  62.69   0.74      0   4598  153.5   0.81   0.15   45.9   1.25   2.98   3.51   3.61   1.65   1.52   1.29   0.93   0.48   0.00   0.00    3632     786
 2004 040   173   170   17.5      8   0.10     64   1496   2882    814   6158   2110   136.6  0.468   4598    959  0.000  0.000  0.000  0.000    2.50  62.69   0.75      0   4598  153.9   0.81   0.15   42.7   1.25   2.96   3.48   3.59   1.63   1.51   1.28   0.92   0.48   0.00   0.00    3658     795
