*SOIL WATER DAILY OUTPUT FILE

*DSSAT Cropping System Model Ver. 4.0.2.000               Jul 19, 2016; 16:26:37

*RUN   1        : UYMZ                    
 MODEL          : MZCER040 - Maize           
 EXPERIMENT     : UYMZ0030 MZ    late to create DSS                             
 TREATMENT  1   : UYMZ                    

@YEAR DOY   DAS  SWXD   ROFC   DRNC   PREC  IR#C  IRRC  DTWT   SW1D   SW2D   SW3D   SW4D   SW5D   SW6D   SW7D   SW8D   SW9D   SW10
 1990 191     0   116      0      0      0     0     0   125  0.348  0.394  0.394  0.335  0.375  0.419  0.408  0.395  0.000  0.000
 1990 192     1   114      0      0      0     0     0   125  0.323  0.393  0.394  0.335  0.376  0.418  0.408  0.395  0.000  0.000
 1990 193     2   113      0      0      0     0     0   125  0.304  0.391  0.394  0.336  0.376  0.418  0.408  0.395  0.000  0.000
 1990 194     3   112      0      0      0     0     0   125  0.288  0.390  0.394  0.336  0.377  0.417  0.408  0.395  0.000  0.000
 1990 195     4   111      0      0      0     0     0   125  0.275  0.389  0.394  0.337  0.377  0.417  0.408  0.395  0.000  0.000
 1990 196     5   135      0      0     26     0     0   125  0.526  0.501  0.394  0.337  0.378  0.416  0.408  0.395  0.000  0.000
 1990 197     6   135      0      0     26     0     0   125  0.498  0.502  0.397  0.338  0.378  0.416  0.408  0.395  0.000  0.000
 1990 198     7   135      0      0     28     0     0   125  0.515  0.496  0.401  0.338  0.378  0.415  0.408  0.395  0.000  0.000
 1990 199     8   133      0      0     28     0     0   125  0.469  0.496  0.404  0.339  0.378  0.415  0.408  0.395  0.000  0.000
 1990 200     9   131      0      0     28     0     0   125  0.437  0.487  0.407  0.339  0.379  0.415  0.408  0.395  0.000  0.000
 1990 201    10   129      0      0     28     0     0   125  0.407  0.477  0.409  0.340  0.379  0.414  0.408  0.395  0.000  0.000
 1990 202    11   128      0      0     28     0     0   125  0.402  0.467  0.411  0.341  0.379  0.414  0.407  0.395  0.000  0.000
 1990 203    12   127      0      0     28     0     0   125  0.383  0.459  0.412  0.341  0.380  0.414  0.407  0.395  0.000  0.000
 1990 204    13   125      0      0     28     0     0   125  0.371  0.452  0.413  0.342  0.380  0.413  0.407  0.395  0.000  0.000
 1990 205    14   125      0      0     28     0     0   125  0.362  0.446  0.414  0.343  0.380  0.413  0.407  0.395  0.000  0.000
 1990 206    15   124      0      0     28     0     0   125  0.355  0.440  0.414  0.343  0.380  0.413  0.407  0.395  0.000  0.000
 1990 207    16   123      0      0     28     0     0   125  0.348  0.435  0.415  0.344  0.380  0.412  0.407  0.395  0.000  0.000
 1990 208    17   122      0      0     28     0     0   125  0.342  0.431  0.415  0.344  0.381  0.412  0.407  0.395  0.000  0.000
 1990 209    18   122      0      0     28     0     0   125  0.336  0.427  0.415  0.345  0.381  0.412  0.407  0.395  0.000  0.000
 1990 210    19   121      0      0     28     0     0   125  0.331  0.423  0.415  0.346  0.381  0.411  0.407  0.395  0.000  0.000
 1990 211    20   120      0      0     28     0     0   125  0.326  0.420  0.415  0.346  0.381  0.411  0.407  0.395  0.000  0.000
 1990 212    21   120      0      0     28     0     0   125  0.321  0.417  0.415  0.347  0.381  0.411  0.407  0.395  0.000  0.000
 1990 213    22   119      0      0     28     0     0   125  0.316  0.414  0.415  0.347  0.381  0.411  0.407  0.395  0.000  0.000
 1990 214    23   119      0      0     28     0     0   125  0.311  0.411  0.415  0.348  0.382  0.410  0.406  0.395  0.000  0.000
 1990 215    24   118      0      0     28     0     0   125  0.306  0.409  0.415  0.348  0.382  0.410  0.406  0.395  0.000  0.000
 1990 216    25   118      0      0     28     0     0   125  0.302  0.407  0.415  0.349  0.382  0.410  0.406  0.395  0.000  0.000
 1990 217    26   117      0      0     28     0     0   125  0.297  0.405  0.415  0.350  0.382  0.410  0.406  0.395  0.000  0.000
 1990 218    27   117      0      0     28     0     0   125  0.293  0.403  0.414  0.350  0.382  0.409  0.406  0.395  0.000  0.000
 1990 219    28   117      0      0     28     0     0   125  0.288  0.402  0.414  0.350  0.382  0.409  0.406  0.395  0.000  0.000
 1990 220    29   116      0      0     28     0     0   125  0.284  0.400  0.414  0.351  0.382  0.409  0.406  0.394  0.000  0.000
 1990 221    30   116      0      0     28     0     0   125  0.280  0.399  0.414  0.351  0.383  0.409  0.406  0.394  0.000  0.000
 1990 222    31   115      0      0     28     0     0   125  0.276  0.397  0.413  0.352  0.383  0.408  0.406  0.394  0.000  0.000
 1990 223    32   115      0      0     28     0     0   125  0.271  0.396  0.413  0.352  0.383  0.408  0.406  0.394  0.000  0.000
 1990 224    33   115      0      0     28     0     0   125  0.267  0.395  0.413  0.353  0.383  0.408  0.406  0.394  0.000  0.000
 1990 225    34   115      0      0     30     0     0   125  0.278  0.393  0.413  0.353  0.383  0.408  0.405  0.394  0.000  0.000
 1990 226    35   121      0      0     37     0     0   125  0.403  0.392  0.412  0.354  0.383  0.408  0.405  0.394  0.000  0.000
 1990 227    36   120      0      0     37     0     0   125  0.390  0.393  0.412  0.354  0.383  0.407  0.405  0.394  0.000  0.000
 1990 228    37   120      0      0     37     0     0   125  0.379  0.393  0.412  0.354  0.383  0.407  0.405  0.394  0.000  0.000
 1990 229    38   119      0      0     37     0     0   125  0.369  0.393  0.412  0.355  0.383  0.407  0.405  0.394  0.000  0.000
 1990 230    39   119      0      0     37     0     0   125  0.360  0.392  0.411  0.355  0.383  0.407  0.405  0.394  0.000  0.000
 1990 231    40   118      0      0     37     0     0   125  0.352  0.391  0.411  0.355  0.383  0.407  0.405  0.394  0.000  0.000
 1990 232    41   118      0      0     37     0     0   125  0.345  0.390  0.411  0.356  0.383  0.406  0.405  0.394  0.000  0.000
 1990 233    42   117      0      0     37     0     0   125  0.338  0.389  0.410  0.356  0.383  0.406  0.405  0.394  0.000  0.000
 1990 234    43   116      0      0     37     0     0   125  0.332  0.388  0.410  0.356  0.384  0.406  0.405  0.394  0.000  0.000
 1990 235    44   116      0      0     37     0     0   125  0.326  0.387  0.409  0.357  0.384  0.406  0.404  0.394  0.000  0.000
 1990 236    45   115      0      0     37     0     0   125  0.320  0.386  0.409  0.357  0.384  0.406  0.404  0.394  0.000  0.000
 1990 237    46   115      0      0     37     0     0   125  0.315  0.384  0.408  0.357  0.384  0.405  0.404  0.394  0.000  0.000
 1990 238    47   114      0      0     37     0     0   125  0.309  0.383  0.407  0.357  0.384  0.405  0.404  0.394  0.000  0.000
 1990 239    48   115      0      0     39     0     0   125  0.320  0.382  0.407  0.358  0.384  0.405  0.404  0.394  0.000  0.000
 1990 240    49   114      0      0     39     0     0   125  0.314  0.381  0.406  0.358  0.384  0.405  0.404  0.393  0.000  0.000
 1990 241    50   114      0      0     39     0     0   125  0.309  0.380  0.406  0.358  0.384  0.405  0.404  0.393  0.000  0.000
 1990 242    51   113      0      0     39     0     0   125  0.303  0.380  0.405  0.358  0.384  0.405  0.404  0.393  0.000  0.000
 1990 243    52   114      0      0     41     0     0   125  0.327  0.379  0.405  0.358  0.384  0.405  0.404  0.393  0.000  0.000
 1990 244    53   114      0      0     41     0     0   125  0.321  0.379  0.405  0.359  0.384  0.404  0.404  0.393  0.000  0.000
 1990 245    54   114      0      0     41     0     0   125  0.316  0.378  0.404  0.359  0.384  0.404  0.404  0.393  0.000  0.000
 1990 246    55   113      0      0     41     0     0   125  0.310  0.378  0.404  0.359  0.384  0.404  0.403  0.393  0.000  0.000
 1990 247    56   113      0      0     41     0     0   125  0.305  0.377  0.404  0.359  0.384  0.404  0.403  0.393  0.000  0.000
 1990 248    57   112      0      0     41     0     0   125  0.300  0.377  0.404  0.359  0.384  0.404  0.403  0.393  0.000  0.000
 1990 249    58   140      0      0     69     0     0   125  0.547  0.527  0.404  0.359  0.384  0.404  0.403  0.393  0.000  0.000
 1990 250    59   143      0      0     73     0     0   125  0.532  0.549  0.414  0.360  0.384  0.403  0.403  0.393  0.000  0.000
 1990 251    60   141      0      0     73     0     0   125  0.511  0.531  0.422  0.360  0.384  0.403  0.403  0.393  0.000  0.000
 1990 252    61   137      0      0     73     0     0   125  0.450  0.515  0.427  0.360  0.384  0.403  0.403  0.393  0.000  0.000
 1990 253    62   158      0      0     97     0     0   125  0.530  0.553  0.518  0.361  0.384  0.403  0.403  0.393  0.000  0.000
 1990 254    63   156      0      0     97     0     0   125  0.490  0.537  0.521  0.364  0.384  0.403  0.403  0.393  0.000  0.000
 1990 255    64   153      0      0     97     0     0   125  0.481  0.519  0.517  0.367  0.384  0.403  0.403  0.392  0.000  0.000
 1990 256    65   151      0      0     97     0     0   125  0.450  0.509  0.513  0.370  0.384  0.403  0.402  0.392  0.000  0.000
 1990 257    66   149      0      0     97     0     0   125  0.445  0.499  0.508  0.373  0.385  0.403  0.402  0.392  0.000  0.000
 1990 258    67   148      0      0     97     0     0   125  0.440  0.491  0.504  0.375  0.385  0.402  0.402  0.392  0.000  0.000
 1990 259    68   146      0      0     97     0     0   125  0.436  0.485  0.500  0.377  0.385  0.402  0.402  0.392  0.000  0.000
 1990 260    69   145      0      0     97     0     0   125  0.432  0.480  0.496  0.378  0.385  0.402  0.402  0.392  0.000  0.000
 1990 261    70   147      0      0    100     0     0   125  0.482  0.476  0.493  0.380  0.385  0.402  0.402  0.392  0.000  0.000
 1990 262    71   146      0      0    100     0     0   125  0.461  0.478  0.490  0.381  0.386  0.402  0.402  0.392  0.000  0.000
 1990 263    72   145      0      0    100     0     0   125  0.448  0.475  0.487  0.382  0.386  0.402  0.402  0.392  0.000  0.000
 1990 264    73   148      0      0    105     0     0   125  0.529  0.474  0.485  0.383  0.386  0.402  0.402  0.392  0.000  0.000
 1990 265    74   146      0      0    105     0     0   125  0.478  0.482  0.482  0.383  0.386  0.402  0.402  0.392  0.000  0.000
 1990 266    75   145      0      0    105     0     0   125  0.458  0.480  0.480  0.384  0.387  0.402  0.402  0.392  0.000  0.000
 1990 267    76   143      0      0    105     0     0   125  0.444  0.474  0.477  0.385  0.387  0.401  0.401  0.392  0.000  0.000
 1990 268    77   142      0      0    105     0     0   125  0.434  0.467  0.474  0.385  0.387  0.401  0.401  0.392  0.000  0.000
 1990 269    78   140      0      0    105     0     0   125  0.425  0.461  0.470  0.385  0.387  0.401  0.401  0.391  0.000  0.000
 1990 270    79   138      0      0    105     0     0   125  0.417  0.454  0.466  0.385  0.388  0.401  0.401  0.391  0.000  0.000
 1990 271    80   137      0      0    105     0     0   125  0.410  0.449  0.462  0.385  0.388  0.401  0.401  0.391  0.000  0.000
 1990 272    81   135      0      0    105     0     0   125  0.404  0.443  0.458  0.385  0.388  0.401  0.401  0.391  0.000  0.000
 1990 273    82   133      0      0    105     0     0   125  0.397  0.436  0.452  0.384  0.388  0.401  0.401  0.391  0.000  0.000
 1990 274    83   131      0      0    105     0     0   125  0.391  0.428  0.445  0.383  0.388  0.401  0.401  0.391  0.000  0.000
 1990 275    84   128      0      0    105     0     0   125  0.384  0.422  0.437  0.382  0.389  0.401  0.401  0.391  0.000  0.000
 1990 276    85   133      0      0    114     0     0   125  0.511  0.421  0.430  0.381  0.389  0.401  0.401  0.391  0.000  0.000
 1990 277    86   162      0      0    144     0     0   125  0.529  0.575  0.509  0.380  0.389  0.401  0.401  0.391  0.000  0.000
 1990 278    87   167      0      0    151     0     0   125  0.562  0.553  0.546  0.385  0.389  0.400  0.401  0.391  0.000  0.000
 1990 279    88   166      0      0    151     0     0   125  0.539  0.546  0.538  0.395  0.389  0.400  0.400  0.391  0.000  0.000
 1990 280    89   167      0      0    154     0     0   125  0.555  0.549  0.539  0.398  0.390  0.400  0.400  0.391  0.000  0.000
 1990 281    90   164      0      0    154     0     0   125  0.518  0.541  0.534  0.399  0.390  0.400  0.400  0.391  0.000  0.000
 1990 282    91   159      0      0    154     0     0   125  0.489  0.525  0.523  0.399  0.390  0.400  0.400  0.391  0.000  0.000
 1990 283    92   154      0      0    154     0     0   125  0.465  0.507  0.511  0.397  0.390  0.400  0.400  0.390  0.000  0.000
 1990 284    93   157      0      0    159     0     0   125  0.556  0.502  0.505  0.397  0.391  0.400  0.400  0.390  0.000  0.000
 1990 285    94   152      0      0    159     0     0   125  0.483  0.507  0.496  0.394  0.390  0.400  0.400  0.390  0.000  0.000
 1990 286    95   147      0      0    159     0     0   125  0.454  0.492  0.488  0.390  0.390  0.400  0.400  0.390  0.000  0.000
 1990 287    96   143      0      0    159     0     0   125  0.438  0.478  0.478  0.386  0.389  0.400  0.400  0.390  0.000  0.000
 1990 288    97   138      0      0    159     0     0   125  0.411  0.465  0.469  0.383  0.388  0.400  0.400  0.390  0.000  0.000
 1990 289    98   133      0      0    159     0     0   125  0.388  0.451  0.459  0.378  0.386  0.400  0.400  0.390  0.000  0.000
 1990 290    99   128      0      0    159     0     0   125  0.369  0.437  0.448  0.374  0.384  0.400  0.400  0.390  0.000  0.000
 1990 291   100   123      0      0    159     0     0   125  0.354  0.424  0.436  0.370  0.381  0.400  0.399  0.390  0.000  0.000
 1990 292   101   120      0      0    159     0     0   125  0.341  0.416  0.427  0.366  0.379  0.399  0.399  0.390  0.000  0.000
 1990 293   102   115      0      0    159     0     0   125  0.330  0.408  0.418  0.362  0.375  0.399  0.399  0.390  0.000  0.000
 1990 294   103   111      0      0    159     0     0   125  0.320  0.400  0.408  0.356  0.370  0.399  0.399  0.390  0.000  0.000
 1990 295   104   106      0      0    159     0     0   125  0.310  0.392  0.398  0.349  0.363  0.398  0.399  0.390  0.000  0.000
 1990 296   105   101      0      0    159     0     0   125  0.301  0.385  0.391  0.343  0.356  0.397  0.399  0.389  0.000  0.000
 1990 297   106    96      0      0    159     0     0   125  0.291  0.379  0.384  0.337  0.349  0.394  0.399  0.389  0.000  0.000
 1990 298   107    91      0      0    159     0     0   125  0.282  0.373  0.378  0.332  0.341  0.390  0.399  0.389  0.000  0.000
 1990 299   108    86      0      0    159     0     0   125  0.273  0.368  0.373  0.327  0.335  0.385  0.399  0.389  0.000  0.000
 1990 300   109    92      0      0    170     0     0   125  0.466  0.364  0.369  0.324  0.331  0.381  0.398  0.389  0.000  0.000
 1990 301   110   164     24      0    270     0     0   125  0.536  0.570  0.566  0.445  0.336  0.379  0.398  0.389  0.000  0.000
 1990 302   111   187     25      0    294     0     0   125  0.566  0.561  0.564  0.464  0.454  0.385  0.398  0.389  0.000  0.000
 1990 303   112   184     25      0    294     0     0   125  0.543  0.548  0.550  0.449  0.439  0.404  0.398  0.389  0.000  0.000
 1990 304   113   180     25      0    294     0     0   125  0.529  0.541  0.542  0.439  0.429  0.409  0.398  0.389  0.000  0.000
 1990 305   114   174     25      0    294     0     0   125  0.520  0.530  0.534  0.430  0.420  0.407  0.398  0.389  0.000  0.000
 1990 306   115   218     25      4    349     0     0   125  0.556  0.558  0.558  0.462  0.452  0.445  0.439  0.432  0.000  0.000
 1990 307   116   216     25      9    357     0     0   125  0.551  0.561  0.561  0.463  0.452  0.438  0.439  0.432  0.000  0.000
 1990 308   117   200     25     20    357     0     0   125  0.535  0.548  0.548  0.448  0.438  0.428  0.427  0.417  0.000  0.000
 1990 309   118   189     25     26    357     0     0   125  0.524  0.536  0.539  0.437  0.428  0.422  0.419  0.408  0.000  0.000
 1990 310   119   182     25     28    357     0     0   125  0.518  0.526  0.531  0.429  0.421  0.419  0.415  0.403  0.000  0.000
 1990 311   120   177     25     29    357     0     0   125  0.513  0.520  0.525  0.424  0.417  0.417  0.412  0.400  0.000  0.000
 1990 312   121   171     25     29    357     0     0   125  0.503  0.512  0.517  0.417  0.410  0.413  0.410  0.398  0.000  0.000
 1990 313   122   165     25     29    357     0     0   125  0.494  0.505  0.509  0.411  0.404  0.409  0.410  0.398  0.000  0.000
 1990 314   123   159     25     29    357     0     0   125  0.485  0.496  0.501  0.404  0.397  0.405  0.410  0.398  0.000  0.000
 1990 315   124   154     25     29    357     0     0   125  0.476  0.488  0.493  0.397  0.391  0.401  0.410  0.398  0.000  0.000
 1990 316   125   155     25     29    363     0     0   125  0.560  0.495  0.486  0.391  0.386  0.397  0.409  0.398  0.000  0.000
 1990 317   126   181     25     29    393     0     0   125  0.533  0.574  0.565  0.447  0.392  0.394  0.409  0.398  0.000  0.000
 1990 318   127   182     25     29    396     0     0   125  0.571  0.561  0.562  0.448  0.401  0.393  0.408  0.398  0.000  0.000
 1990 319   128   198     25     29    416     0     0   125  0.559  0.563  0.563  0.464  0.457  0.409  0.407  0.398  0.000  0.000
 1990 320   129   189     25     32    416     0     0   125  0.536  0.551  0.551  0.449  0.437  0.413  0.407  0.398  0.000  0.000
 1990 321   130   183     25     32    416     0     0   125  0.527  0.539  0.542  0.438  0.427  0.413  0.405  0.398  0.000  0.000
 1990 322   131   176     25     32    416     0     0   125  0.522  0.529  0.534  0.430  0.419  0.407  0.403  0.398  0.000  0.000
 1990 323   132   218     26     40    473     0     0   125  0.561  0.561  0.561  0.464  0.455  0.443  0.437  0.431  0.000  0.000
 1990 324   133   220     26     48    486     0     0   125  0.560  0.564  0.564  0.466  0.457  0.444  0.438  0.432  0.000  0.000
 1990 325   134   200     26     62    486     0     0   125  0.538  0.548  0.548  0.448  0.439  0.428  0.423  0.417  0.000  0.000
 1990 326   135   187     26     67    486     0     0   125  0.525  0.537  0.539  0.436  0.429  0.419  0.415  0.408  0.000  0.000
 1990 327   136   179     26     69    486     0     0   125  0.519  0.526  0.530  0.429  0.422  0.414  0.409  0.403  0.000  0.000
 1990 328   137   172     26     69    486     0     0   125  0.511  0.519  0.523  0.422  0.416  0.408  0.407  0.400  0.000  0.000
 1990 329   138   218     27     76    545     0     0   125  0.560  0.561  0.561  0.464  0.455  0.442  0.437  0.432  0.000  0.000
 1990 330   139   200     27     89    545     0     0   125  0.541  0.548  0.548  0.448  0.440  0.428  0.423  0.417  0.000  0.000
 1990 331   140   188     27     94    545     0     0   125  0.527  0.539  0.539  0.438  0.430  0.419  0.414  0.408  0.000  0.000
 1990 332   141   180     27     95    545     0     0   125  0.522  0.529  0.533  0.431  0.424  0.414  0.409  0.403  0.000  0.000
 1990 333   142   173     27     96    545     0     0   125  0.513  0.522  0.526  0.425  0.418  0.408  0.406  0.399  0.000  0.000
 1990 334   143   179     27     96    553     0     0   125  0.569  0.557  0.531  0.423  0.416  0.406  0.405  0.397  0.000  0.000
 1990 335   144   195     27     96    575     0     0   125  0.554  0.559  0.564  0.465  0.450  0.409  0.402  0.397  0.000  0.000
 1990 336   145   218     27     99    603     0     0   125  0.560  0.565  0.565  0.467  0.457  0.444  0.438  0.416  0.000  0.000
 1990 337   146   199     27    111    603     0     0   125  0.540  0.553  0.549  0.449  0.440  0.428  0.422  0.407  0.000  0.000
 1990 338   147   187     27    116    603     0     0   125  0.525  0.543  0.541  0.439  0.431  0.417  0.412  0.402  0.000  0.000
 1990 339   148   216     27    120    643     0     0   125  0.565  0.557  0.561  0.463  0.454  0.441  0.435  0.428  0.000  0.000
 1990 340   149   201     27    132    643     0     0   125  0.547  0.548  0.552  0.449  0.443  0.430  0.423  0.415  0.000  0.000
 1990 341   150   189     27    138    643     0     0   125  0.528  0.541  0.543  0.438  0.433  0.421  0.414  0.406  0.000  0.000
 1990 342   151   182     27    139    643     0     0   125  0.523  0.532  0.537  0.432  0.427  0.415  0.408  0.401  0.000  0.000
 1990 343   152   179     27    140    643     0     0   125  0.524  0.528  0.533  0.430  0.425  0.413  0.406  0.398  0.000  0.000
 1990 344   153   176     27    140    643     0     0   125  0.519  0.525  0.529  0.427  0.422  0.411  0.404  0.397  0.000  0.000
 1990 345   154   169     27    140    643     0     0   125  0.506  0.519  0.523  0.422  0.417  0.405  0.400  0.396  0.000  0.000
 1990 346   155   167     27    140    643     0     0   125  0.508  0.515  0.519  0.420  0.415  0.403  0.399  0.396  0.000  0.000
 1990 347   156   162     27    140    643     0     0   125  0.499  0.510  0.514  0.416  0.410  0.399  0.396  0.395  0.000  0.000
 1990 348   157   157     27    140    643     0     0   125  0.489  0.503  0.509  0.412  0.406  0.395  0.393  0.394  0.000  0.000
 1990 349   158   151     27    140    643     0     0   125  0.478  0.496  0.502  0.406  0.400  0.390  0.389  0.393  0.000  0.000
 1990 350   159   145     27    140    643     0     0   125  0.468  0.489  0.496  0.401  0.395  0.386  0.385  0.392  0.000  0.000
 1990 351   160   160     27    140    661     0     0   125  0.569  0.564  0.522  0.400  0.393  0.385  0.384  0.391  0.000  0.000
 1990 352   161   158     27    140    661     0     0   125  0.552  0.548  0.531  0.400  0.392  0.384  0.383  0.391  0.000  0.000
 1990 353   162   152     27    140    661     0     0   125  0.526  0.536  0.527  0.395  0.386  0.380  0.379  0.389  0.000  0.000
 1990 354   163   145     27    140    661     0     0   125  0.511  0.523  0.518  0.390  0.382  0.377  0.376  0.388  0.000  0.000
 1990 355   164   141     27    140    663     0     0   125  0.535  0.514  0.509  0.385  0.378  0.374  0.373  0.386  0.000  0.000
 1990 356   165   137     27    140    663     0     0   125  0.505  0.514  0.503  0.383  0.376  0.372  0.371  0.385  0.000  0.000
 1990 357   166   131     27    140    663     0     0   125  0.487  0.502  0.495  0.379  0.373  0.370  0.369  0.383  0.000  0.000
 1990 358   167   125     27    140    663     0     0   125  0.468  0.489  0.485  0.375  0.370  0.367  0.366  0.382  0.000  0.000
 1990 359   168   118     27    140    663     0     0   125  0.445  0.475  0.474  0.371  0.367  0.365  0.363  0.380  0.000  0.000
 1990 360   169   111     27    140    663     0     0   125  0.418  0.460  0.461  0.368  0.364  0.362  0.361  0.377  0.000  0.000
 1990 361   170   112     27    140    667     0     0   125  0.497  0.452  0.457  0.367  0.363  0.361  0.360  0.376  0.000  0.000
 1990 362   171   108     27    140    667     0     0   125  0.462  0.450  0.449  0.365  0.361  0.360  0.359  0.374  0.000  0.000
 1990 363   172   102     27    140    667     0     0   125  0.432  0.442  0.439  0.362  0.359  0.358  0.357  0.373  0.000  0.000
 1990 364   173    96     27    140    667     0     0   125  0.403  0.430  0.428  0.360  0.357  0.356  0.355  0.371  0.000  0.000
 1990 365   174    89     27    140    667     0     0   125  0.376  0.417  0.417  0.356  0.354  0.354  0.353  0.368  0.000  0.000
 1991 001   175    85     27    140    667     0     0   125  0.366  0.410  0.412  0.353  0.352  0.352  0.351  0.366  0.000  0.000
 1991 002   176    78     27    140    667     0     0   125  0.341  0.401  0.404  0.349  0.349  0.349  0.347  0.363  0.000  0.000
 1991 003   177    71     27    140    667     0     0   125  0.313  0.393  0.396  0.344  0.345  0.345  0.343  0.359  0.000  0.000
 1991 004   178    64     27    140    667     0     0   125  0.284  0.385  0.389  0.339  0.340  0.341  0.338  0.355  0.000  0.000
 1991 005   179    57     27    140    667     0     0   125  0.264  0.380  0.384  0.335  0.336  0.337  0.335  0.351  0.000  0.000
 1991 006   180    52     27    140    667     0     0   125  0.246  0.375  0.379  0.331  0.333  0.333  0.331  0.348  0.000  0.000
 1991 007   181    46     27    140    667     0     0   125  0.231  0.369  0.373  0.326  0.328  0.329  0.326  0.344  0.000  0.000
 1991 008   182    57     27    140    684     0     0   125  0.549  0.370  0.368  0.322  0.324  0.325  0.322  0.340  0.000  0.000
 1991 009   183    52     27    140    684     0     0   125  0.457  0.380  0.367  0.320  0.323  0.323  0.321  0.338  0.000  0.000
 1991 010   184    45     27    140    684     0     0   125  0.362  0.380  0.365  0.319  0.321  0.322  0.320  0.337  0.000  0.000
 1991 011   185    38     27    140    684     0     0   125  0.320  0.371  0.361  0.315  0.317  0.318  0.316  0.334  0.000  0.000
 1991 012   186    32     27    140    684     0     0   125  0.277  0.365  0.357  0.312  0.314  0.315  0.313  0.331  0.000  0.000
 1991 013   187    27     27    140    684     0     0   125  0.241  0.360  0.354  0.309  0.312  0.313  0.310  0.328  0.000  0.000
 1991 014   188    23     27    140    684     0     0   125  0.220  0.356  0.352  0.307  0.309  0.310  0.308  0.326  0.000  0.000
 1991 015   189    43     27    140    706     0     0   125  0.568  0.404  0.349  0.305  0.307  0.308  0.306  0.324  0.000  0.000
 1991 016   190    40     27    140    709     0     0   125  0.458  0.431  0.349  0.304  0.307  0.308  0.306  0.324  0.000  0.000
 1991 017   191    33     27    140    709     0     0   125  0.370  0.411  0.350  0.304  0.306  0.307  0.305  0.323  0.000  0.000
 1991 018   192    27     27    140    709     0     0   125  0.329  0.384  0.349  0.303  0.305  0.306  0.304  0.322  0.000  0.000
 1991 019   193    21     27    140    709     0     0   125  0.280  0.372  0.347  0.301  0.303  0.304  0.302  0.320  0.000  0.000
 1991 020   194    48     27    140    740     0     0   125  0.520  0.536  0.345  0.299  0.302  0.303  0.301  0.319  0.000  0.000
 1991 021   195    43     27    140    740     0     0   125  0.474  0.507  0.349  0.299  0.301  0.303  0.301  0.319  0.000  0.000
 1991 022   196    36     27    140    740     0     0   125  0.413  0.471  0.352  0.299  0.301  0.302  0.301  0.318  0.000  0.000
 1991 023   197    30     27    140    740     0     0   125  0.364  0.430  0.353  0.299  0.301  0.302  0.300  0.318  0.000  0.000
