*PLANT N OUTPUT FILE

*DSSAT Cropping System Model Ver. 4.0.2.000               Aug 11, 2016; 15:17:37

*RUN   1        : UYMZ                    
 MODEL          : MZCER040 - Maize           
 EXPERIMENT     : UYMZ0142 MZ    late to create DSS                             
 TREATMENT  1   : UYMZ                    

@YEAR DOY   DAS   DAP   CNAD   GNAD   VNAD   GN%D   VN%D   NUPC   LNAD   SNAD   LN%D   SN%D   RN%D   SNN0C   SNN1C
 1990 223     3     0    0.0    0.0    0.0   0.00   0.00    0.0    0.0    0.0    0.0   0.00   0.00    0.00    0.00
 1990 224     4     1    0.0    0.0    0.0   0.00   0.00    0.0    0.0    0.0    0.0   0.00   0.00    0.00    0.00
 1990 225     5     2    0.0    0.0    0.0   0.00   0.00    0.0    0.0    0.0    0.0   0.00   0.00    0.00    0.00
 1990 226     6     3    0.0    0.0    0.0   0.00   0.00    0.0    0.0    0.0    0.0   0.00   0.00    0.00    0.00
 1990 227     7     4    0.0    0.0    0.0   0.00   0.00    0.0    0.0    0.0    0.0   0.00   0.00    0.00    0.00
 1990 228     8     5    0.0    0.0    0.0   0.00   0.00    0.0    0.0    0.0    0.0   0.00   0.00    0.00    0.00
 1990 229     9     6    0.0    0.0    0.0   0.00   0.00    0.0    0.0    0.0    0.0   0.00   0.00    0.00    0.00
 1990 230    10     7    0.0    0.0    0.0   0.00   0.00    0.0    0.0    0.0    0.0   0.00   0.00    0.00    0.00
 1990 231    11     8    0.0    0.0    0.0   0.00   0.00    0.0    0.0    0.0    0.0   0.00   0.00    0.00    0.00
 1990 232    12     9    1.2    0.0    1.2   0.00   4.40    0.0    0.6    0.6    4.4   4.40   0.00    0.00    0.00
 1990 233    13    10    1.3    0.0    1.3   0.00   4.54    0.2    0.6    0.6    4.5   4.54   1.09    0.00    0.00
 1990 234    14    11    1.3    0.0    1.3   0.00   4.52    0.2    0.6    0.6    4.5   4.52   1.10    0.00    0.00
 1990 235    15    12    1.3    0.0    1.3   0.00   4.51    0.2    0.6    0.6    4.5   4.51   1.14    0.00    0.00
 1990 236    16    13    1.3    0.0    1.3   0.00   4.51    0.2    0.6    0.6    4.5   4.51   1.11    0.00    0.00
 1990 237    17    14    1.3    0.0    1.3   0.00   4.51    0.2    0.6    0.6    4.5   4.51   1.07    0.00    0.00
 1990 238    18    15    1.2    0.0    1.2   0.00   4.45    0.2    0.6    0.6    4.5   4.45   1.14    0.00    0.00
 1990 239    19    16    1.2    0.0    1.2   0.00   4.45    0.2    0.6    0.6    4.5   4.45   1.11    0.00    0.00
 1990 240    20    17    1.2    0.0    1.2   0.00   4.44    0.2    0.6    0.6    4.4   4.44   1.30    0.00    0.00
 1990 241    21    18    1.2    0.0    1.2   0.00   4.44    0.2    0.6    0.6    4.4   4.44   1.26    0.00    0.00
 1990 242    22    19    1.2    0.0    1.2   0.00   4.44    0.2    0.6    0.6    4.4   4.44   1.21    0.00    0.00
 1990 243    23    20    1.2    0.0    1.2   0.00   4.44    0.2    0.6    0.6    4.4   4.44   1.21    0.00    0.00
 1990 244    24    21    1.2    0.0    1.2   0.00   4.44    0.2    0.6    0.6    4.4   4.44   1.21    0.00    0.00
 1990 245    25    22    1.2    0.0    1.2   0.00   4.44    0.2    0.6    0.6    4.4   4.44   1.20    0.00    0.00
 1990 246    26    23    1.2    0.0    1.2   0.00   4.44    0.2    0.6    0.6    4.4   4.44   1.20    0.00    0.00
 1990 247    27    24    1.2    0.0    1.2   0.00   4.44    0.2    0.6    0.6    4.4   4.44   1.20    0.00    0.00
 1990 248    28    25    1.2    0.0    1.2   0.00   4.44    0.2    0.6    0.6    4.4   4.44   1.19    0.00    0.00
 1990 249    29    26    1.2    0.0    1.2   0.00   4.44    0.2    0.6    0.6    4.4   4.44   1.17    0.00    0.00
 1990 250    30    27    1.2    0.0    1.2   0.00   4.44    0.2    0.6    0.6    4.4   4.44   1.13    0.00    0.00
 1990 251    31    28    1.2    0.0    1.2   0.00   4.44    0.2    0.6    0.6    4.4   4.44   1.08    0.00    0.00
 1990 252    32    29    1.2    0.0    1.2   0.00   3.93    0.3    0.7    0.5    3.9   3.93   1.24    0.00    0.00
 1990 253    33    30    1.3    0.0    1.3   0.00   3.49    0.4    0.8    0.5    3.5   3.49   1.14    0.00    0.01
 1990 254    34    31    1.6    0.0    1.6   0.00   3.72    0.7    1.1    0.5    3.7   3.72   1.14    0.00    0.01
 1990 255    35    32    1.8    0.0    1.8   0.00   4.13    1.1    1.3    0.6    4.1   4.13   1.50    0.00    0.01
 1990 256    36    33    1.9    0.0    1.9   0.00   4.20    1.3    1.3    0.6    4.2   4.20   1.59    0.00    0.01
 1990 257    37    34    1.9    0.0    1.9   0.00   4.14    1.3    1.3    0.6    4.1   4.14   1.48    0.00    0.01
 1990 258    38    35    2.0    0.0    2.0   0.00   3.97    1.3    1.4    0.6    4.0   3.97   1.26    0.00    0.02
 1990 259    39    36    2.1    0.0    2.1   0.00   3.74    1.5    1.6    0.5    3.7   3.74   1.17    0.00    0.02
 1990 260    40    37    2.4    0.0    2.4   0.00   3.82    1.8    1.8    0.5    3.8   3.82   1.13    0.00    0.02
 1990 261    41    38    2.6    0.0    2.6   0.00   3.80    2.0    2.1    0.5    3.8   3.80   1.12    0.00    0.03
 1990 262    42    39    2.8    0.0    2.8   0.00   3.82    2.4    2.3    0.5    3.8   3.82   1.20    0.00    0.03
 1990 263    43    40    3.1    0.0    3.1   0.00   3.78    2.6    2.6    0.5    3.8   3.78   1.10    0.00    0.03
 1990 264    44    41    3.4    0.0    3.4   0.00   3.62    2.9    2.9    0.5    3.6   3.62   1.09    0.00    0.04
 1990 265    45    42    3.9    0.0    3.9   0.00   3.77    3.8    3.3    0.5    3.8   3.77   1.31    0.00    0.04
 1990 266    46    43    4.2    0.0    4.2   0.00   4.00    4.4    3.7    0.6    4.0   4.00   1.42    0.00    0.05
 1990 267    47    44    4.3    0.0    4.3   0.00   3.98    4.7    3.8    0.6    4.0   3.98   1.44    0.00    0.05
 1990 268    48    45    4.5    0.0    4.5   0.00   3.94    5.0    3.9    0.6    3.9   3.94   1.36    0.00    0.06
 1990 269    49    46    4.6    0.0    4.6   0.00   3.76    5.3    4.1    0.5    3.8   3.76   1.24    0.00    0.07
 1990 270    50    47    5.0    0.0    5.0   0.00   3.58    5.9    4.5    0.5    3.6   3.58   1.20    0.00    0.08
 1990 271    51    48    5.7    0.0    5.7   0.00   3.61    6.4    5.1    0.5    3.6   3.61   1.08    0.00    0.09
 1990 272    52    49    6.3    0.0    6.3   0.00   3.58    7.5    5.8    0.5    3.6   3.58   1.20    0.00    0.10
 1990 273    53    50    7.0    0.0    7.0   0.00   3.54    8.6    6.5    0.5    3.5   3.54   1.20    0.00    0.11
 1990 274    54    51    7.9    0.0    7.9   0.00   3.38    9.9    7.4    0.5    3.4   3.38   1.20    0.00    0.13
 1990 275    55    52    9.2    0.0    9.2   0.00   3.48   11.9    8.7    0.5    3.5   3.48   1.24    0.00    0.14
 1990 276    56    53   10.3    0.0   10.3   0.00   3.40   13.4    9.8    0.5    3.4   3.40   1.20    0.00    0.16
 1990 277    57    54   11.8    0.0   11.8   0.00   3.44   15.3   11.3    0.5    3.4   3.44   1.17    0.00    0.19
 1990 278    58    55   13.3    0.0   13.3   0.00   3.49   16.5   12.8    0.5    3.5   3.49   1.08    0.00    0.21
 1990 279    59    56   14.6    0.0   14.6   0.00   3.35   18.0   14.1    0.5    3.4   3.35   1.10    0.00    0.23
 1990 280    60    57   18.2    0.0   18.2   0.00   3.78   21.6   17.7    0.5    3.8   3.78   1.09    0.00    0.25
 1990 281    61    58   19.2    0.0   19.2   0.00   3.68   23.3   18.7    0.5    3.7   3.68   1.16    0.00    0.28
 1990 282    62    59   20.1    0.0   20.1   0.00   3.57   26.0   19.6    0.5    3.6   3.57   1.27    0.00    0.30
 1990 283    63    60   21.6    0.0   21.6   0.00   3.55   28.3   21.1    0.5    3.5   3.55   1.22    0.00    0.34
 1990 284    64    61   23.5    0.0   23.5   0.00   3.52   29.7   23.0    0.5    3.5   3.52   1.10    0.00    0.38
 1990 285    65    62   24.9    0.0   24.9   0.00   3.49   33.6   24.3    0.6    3.5   3.49   1.25    0.00    0.42
 1990 286    66    63   26.2    0.0   26.2   0.00   3.47   36.5   25.5    0.6    3.5   3.47   1.23    0.00    0.47
 1990 287    67    64   28.4    0.0   28.4   0.00   3.45   39.8   27.7    0.7    3.4   3.45   1.19    0.00    0.52
 1990 288    68    65   30.1    0.0   30.1   0.00   3.42   43.2   29.3    0.8    3.4   3.42   1.20    0.00    0.59
 1990 289    69    66   31.4    0.0   31.4   0.00   3.41   46.3   30.5    0.9    3.4   3.41   1.20    0.00    0.66
 1990 290    70    67   33.3    0.0   33.3   0.00   3.39   48.0   32.3    1.0    3.4   3.39   1.12    0.00    0.74
 1990 291    71    68   36.3    0.0   36.3   0.00   3.36   52.9   35.0    1.3    3.4   3.36   1.16    0.00    0.82
 1990 292    72    69   39.5    0.0   39.5   0.00   3.32   56.2   37.8    1.7    3.3   3.32   1.12    0.00    0.91
 1990 293    73    70   42.8    0.0   42.8   0.00   3.29   60.1   40.6    2.2    3.3   3.29   1.11    0.00    0.99
 1990 294    74    71   46.0    0.0   46.0   0.00   3.25   65.1   43.2    2.8    3.3   3.25   1.14    0.00    1.09
 1990 295    75    72   49.2    0.0   49.2   0.00   3.22   70.4   45.8    3.4    3.2   3.22   1.16    0.00    1.19
 1990 296    76    73   52.6    0.0   52.6   0.00   3.19   74.4   48.4    4.2    3.2   3.19   1.13    0.00    1.30
 1990 297    77    74   55.7    0.0   55.7   0.00   3.16   78.7   50.7    5.0    3.2   3.16   1.13    0.00    1.41
 1990 298    78    75   59.0    0.0   59.0   0.00   3.13   82.0   53.1    5.9    3.1   3.13   1.10    0.00    1.53
 1990 299    79    76   63.4    0.0   63.4   0.00   3.08   88.4   56.1    7.3    3.1   3.08   1.12    0.00    1.65
 1990 300    80    77   68.5    0.0   68.5   0.00   3.04   93.6   59.4    9.1    3.0   3.04   1.10    0.00    1.78
 1990 301    81    78   72.1    0.0   72.1   0.00   3.01   96.6   61.6   10.5    3.0   3.01   1.07    0.00    1.92
 1990 302    82    79   76.0    0.0   76.0   0.00   2.93  100.5   63.6   12.5    2.9   2.93   1.07    0.00    2.04
 1990 303    83    80   78.5    0.0   78.5   0.00   2.76  103.7   63.9   14.5    2.8   2.76   1.05    0.00    2.17
 1990 304    84    81   80.4    0.0   80.4   0.00   2.65  106.4   64.3   16.2    2.7   2.65   1.02    0.00    2.30
 1990 305    85    82   82.3    0.0   82.3   0.00   2.53  108.7   64.4   18.0    2.5   2.53   1.00    0.00    2.44
 1990 306    86    83   84.0    0.0   84.0   0.00   2.41  110.7   64.2   19.8    2.4   2.41   0.99    0.00    2.57
 1990 307    87    84   85.6    0.0   85.6   0.00   2.32  112.5   64.1   21.5    2.3   2.32   1.00    0.00    2.71
 1990 308    88    85   86.9    0.0   86.9   0.00   2.25  114.0   64.0   22.9    2.3   2.25   0.97    0.00    2.85
 1990 309    89    86   87.8    0.0   87.8   0.00   2.22  115.2   64.1   23.7    2.2   2.22   0.92    0.00    2.99
 1990 310    90    87   88.7    0.0   88.7   0.00   2.16  116.3   63.8   24.8    2.2   2.16   0.90    0.00    3.13
 1990 311    91    88   89.5    0.0   89.5   0.00   2.07  117.4   63.2   26.4    2.1   2.07   0.88    0.00    3.28
 1990 312    92    89   90.3    0.0   90.3   0.00   2.02  118.3   62.9   27.4    2.0   2.02   0.89    0.00    3.42
 1990 313    93    90   91.0    0.0   91.0   0.00   1.92  119.2   62.7   28.3    1.9   1.92   0.89    0.00    3.56
 1990 314    94    91   91.6    0.0   91.6   0.00   1.82  119.9   61.9   29.7    1.8   1.82   0.89    0.00    3.71
 1990 315    95    92   92.1    0.0   92.1   0.00   1.72  120.5   60.8   31.3    1.7   1.72   0.88    0.00    3.86
 1990 316    96    93   92.6    0.0   92.6   0.00   1.67  121.1   60.2   32.5    1.7   1.67   0.88    0.00    4.00
 1990 317    97    94   93.5    0.0   93.5   0.00   1.58  122.0   58.9   34.5    1.6   1.58   0.87    0.00    4.15
 1990 318    98    95   95.2    0.0   95.2   0.00   1.54  123.9   58.7   36.5    1.5   1.54   0.88    0.00    4.29
 1990 319    99    96   96.8    0.0   96.8   0.00   1.53  125.7   59.0   37.8    1.5   1.53   0.88    0.00    4.44
 1990 320   100    97   98.2    0.0   98.2   0.00   1.52  127.3   59.1   39.1    1.5   1.52   0.87    0.00    4.59
 1990 321   101    98   99.4    0.0   99.4   0.00   1.50  128.7   59.0   40.4    1.5   1.50   0.84    0.00    4.74
 1990 322   102    99  100.7    0.0  100.7   0.00   1.46  130.3   58.6   42.1    1.5   1.46   0.82    0.00    4.89
 1990 323   103   100  102.0    0.0  102.0   0.00   1.41  131.7   57.9   44.1    1.4   1.41   0.81    0.00    5.04
 1990 324   104   101  103.2    0.0  103.2   0.00   1.39  133.1   57.7   45.5    1.4   1.39   0.82    0.00    5.19
 1990 325   105   102  104.3    0.0  104.3   0.00   1.36  134.4   57.3   47.0    1.4   1.36   0.79    0.00    5.35
 1990 326   106   103  105.3    0.0  105.3   0.00   1.33  135.6   57.0   48.3    1.3   1.33   0.77    0.00    5.50
 1990 327   107   104  106.3    0.0  106.3   0.00   1.31  136.8   56.8   49.5    1.3   1.31   0.75    0.00    5.66
 1990 328   108   105  107.3    0.0  107.3   0.00   1.28  137.9   56.5   50.7    1.3   1.28   0.74    0.00    5.81
 1990 329   109   106  108.1    0.0  108.1   0.00   1.40  139.0   61.1   47.0    1.4   1.40   0.74    0.00    5.97
 1990 330   110   107  109.0    0.0  109.0   0.00   1.41  140.1   60.9   48.1    1.4   1.41   0.73    0.00    6.13
 1990 331   111   108  109.8    0.0  109.8   0.00   1.43  141.2   60.7   49.1    1.4   1.43   0.70    0.00    6.28
 1990 332   112   109  110.8    0.0  110.8   0.00   1.44  142.6   60.6   50.2    1.4   1.44   0.68    0.00    6.44
 1990 333   113   110  111.6    0.0  111.6   0.00   1.45  143.8   60.2   51.4    1.5   1.45   0.67    0.00    6.61
 1990 334   114   111  112.4    0.0  112.4   0.00   1.46  144.9   59.8   52.6    1.5   1.46   0.67    0.00    6.77
 1990 335   115   112  113.2    0.0  113.2   0.00   1.47  146.0   59.3   53.9    1.5   1.47   0.67    0.00    6.93
 1990 336   116   113  113.9    0.0  113.9   0.00   1.48  147.1   58.9   55.0    1.5   1.48   0.68    0.00    7.10
 1990 337   117   114  114.5    0.0  114.5   0.00   1.49  148.1   58.4   56.1    1.5   1.49   0.66    0.00    7.27
 1990 338   118   115  115.1    0.0  115.1   0.00   1.50  149.0   57.7   57.3    1.5   1.50   0.65    0.00    7.44
 1990 339   119   116  115.7    0.0  115.7   0.00   1.51  150.0   56.9   58.8    1.5   1.51   0.66    0.00    7.61
 1990 340   120   117  116.2    0.0  116.2   0.00   1.52  150.9   56.0   60.2    1.5   1.52   0.66    0.00    7.79
 1990 341   121   118  116.6    0.0  116.6   0.00   1.52  151.6   55.1   61.5    1.5   1.52   0.66    0.00    7.96
 1990 342   122   119  117.0    0.0  117.0   0.00   1.53  152.4   54.2   62.8    1.5   1.53   0.64    0.00    8.14
 1990 343   123   120  117.4    2.2  115.2   1.44   1.51  153.3   53.4   61.8    1.5   1.51   0.66    0.00    8.32
 1990 344   124   121  117.6    4.6  113.0   1.43   1.48  153.7   52.4   60.6    1.5   1.48   0.66    0.00    8.50
 1990 345   125   122  117.9    7.7  110.2   1.43   1.44  154.2   51.1   59.1    1.4   1.44   0.66    0.00    8.68
 1990 346   126   123  122.6    9.5  113.0   1.42   1.48  162.5   52.4   60.6    1.5   1.48   0.73    0.00    8.87
 1990 347   127   124  124.7   12.5  112.2   1.43   1.47  166.1   52.0   60.2    1.5   1.47   0.75    0.00    9.07
 1990 348   128   125  125.6   14.4  111.2   1.43   1.46  167.7   51.6   59.6    1.5   1.46   0.76    0.00    9.28
 1990 349   129   126  126.2   17.3  108.9   1.43   1.43  168.8   50.5   58.4    1.4   1.43   0.75    0.00    9.49
 1990 350   130   127  126.7   21.1  105.6   1.44   1.38  169.7   49.0   56.6    1.4   1.38   0.76    0.00    9.70
 1990 351   131   128  127.2   25.0  102.1   1.44   1.34  170.5   47.5   54.7    1.3   1.34   0.76    0.00    9.92
 1990 352   132   129  127.6   28.6   99.1   1.43   1.30  171.3   45.9   53.1    1.3   1.30   0.77    0.00   10.14
 1990 353   133   130  128.0   31.6   96.4   1.43   1.26  171.8   44.7   51.7    1.3   1.26   0.76    0.00   10.36
 1990 354   134   131  128.5   34.7   93.8   1.42   1.23  172.7   43.5   50.3    1.2   1.23   0.76    0.00   10.58
 1990 355   135   132  129.0   38.4   90.6   1.41   1.19  173.5   42.0   48.6    1.2   1.19   0.76    0.00   10.80
 1990 356   136   133  129.5   42.0   87.6   1.40   1.16  174.3   41.1   46.4    1.2   1.16   0.77    0.00   11.02
 1990 357   137   134  129.9   45.5   84.4   1.39   1.12  174.9   39.5   44.9    1.1   1.12   0.78    0.00   11.25
 1990 358   138   135  130.2   48.3   82.0   1.38   1.08  175.5   38.4   43.6    1.1   1.08   0.78    0.00   11.47
 1990 359   139   136  130.6   50.7   79.9   1.37   1.05  176.1   37.0   42.9    1.0   1.05   0.78    0.00   11.70
 1990 360   140   137  131.4   54.1   77.3   1.36   1.01  177.2   35.8   41.5    1.0   1.01   0.78    0.00   11.93
 1990 361   141   138  132.0   57.4   74.6   1.35   0.98  178.1   34.6   40.0    1.0   0.98   0.79    0.00   12.15
 1990 362   142   139  132.7   59.1   73.6   1.34   0.96  179.2   34.1   39.5    1.0   0.96   0.78    0.00   12.39
 1990 363   143   140  133.3   60.7   72.6   1.34   0.95  180.1   33.7   38.9    1.0   0.95   0.78    0.00   12.62
 1990 364   144   141  133.9   63.0   70.9   1.33   0.93  181.0   32.9   38.0    0.9   0.93   0.78    0.00   12.85
 1990 365   145   142  134.5   66.0   68.5   1.32   0.90  181.9   31.8   36.7    0.9   0.90   0.78    0.00   13.09
 1991 001   146   143  135.0   69.0   66.0   1.30   0.86  182.7   30.6   35.4    0.9   0.86   0.79    0.00   13.32
 1991 002   147   144  135.6   71.9   63.7   1.29   0.83  183.5   29.5   34.2    0.8   0.83   0.79    0.00   13.56
 1991 003   148   145  136.1   74.7   61.4   1.28   0.80  184.4   28.5   33.0    0.8   0.80   0.80    0.00   13.80
 1991 004   149   146  136.7   77.1   59.6   1.27   0.78  185.2   27.6   32.0    0.8   0.78   0.80    0.00   14.04
 1991 005   150   147  137.3   79.4   57.9   1.26   0.76  186.1   26.8   31.0    0.8   0.76   0.80    0.00   14.28
 1991 006   151   148  137.9   81.8   56.0   1.24   0.73  186.9   26.0   30.1    0.7   0.73   0.81    0.00   14.53
 1991 007   152   149  138.4   84.4   54.1   1.23   0.71  187.7   25.1   29.0    0.7   0.71   0.81    0.00   14.77
 1991 008   153   150  139.0   86.8   52.1   1.22   0.68  188.5   24.2   28.0    0.7   0.68   0.82    0.00   15.01
 1991 009   154   151  139.4   89.2   50.3   1.20   0.67  189.1   23.8   26.4    0.7   0.67   0.82    0.00   15.26
 1991 010   155   152  140.1   91.4   48.7   1.19   0.65  190.0   23.1   25.6    0.7   0.65   0.83    0.00   15.51
 1991 011   156   153  140.7   93.5   47.1   1.18   0.63  190.8   22.4   24.7    0.6   0.63   0.84    0.00   15.76
 1991 012   157   154  141.3   95.2   46.1   1.17   0.62  191.8   21.8   24.3    0.6   0.62   0.85    0.00   16.01
 1991 013   158   155  141.9   96.9   45.0   1.16   0.61  192.6   21.5   23.6    0.6   0.61   0.85    0.00   16.26
 1991 014   159   156  142.5   98.7   43.8   1.14   0.59  193.3   20.9   22.9    0.6   0.59   0.86    0.00   16.51
 1991 015   160   157  143.0  100.7   42.4   1.13   0.57  194.1   20.3   22.0    0.6   0.57   0.87    0.00   16.76
 1991 016   161   158  143.6  101.8   41.8   1.12   0.57  194.8   20.1   21.7    0.6   0.57   0.88    0.00   17.01
 1991 017   162   159  144.1  102.6   41.5   1.12   0.56  195.5   19.8   21.6    0.6   0.56   0.88    0.00   17.27
 1991 018   163   160  144.5  104.0   40.5   1.11   0.55  196.1   19.4   21.1    0.5   0.55   0.89    0.00   17.52
 1991 019   164   161  145.2  105.5   39.7   1.09   0.54  196.9   19.2   20.6    0.5   0.54   0.89    0.00   17.78
 1991 020   165   162  145.2  105.5   39.7   1.09   0.54  197.7   19.2   20.6    0.5   0.54   0.89    0.00   17.78
 1991 021   166   163  145.2  105.5   39.7   1.09   0.54  198.4   19.2   20.6    0.5   0.54   0.89    0.00   17.78
 1991 022   167   164  145.2  105.5   39.7   1.09   0.54  199.2   19.2   20.6    0.5   0.54   0.89    0.00   17.78

*DSSAT Cropping System Model Ver. 4.0.2.000               Aug 11, 2016; 15:17:37

*RUN   2        : UYMZ                    
 MODEL          : MZCER040 - Maize           
 EXPERIMENT     : UYMZ0142 MZ    late to create DSS                             
 TREATMENT  1   : UYMZ                    

@YEAR DOY   DAS   DAP   CNAD   GNAD   VNAD   GN%D   VN%D   NUPC   LNAD   SNAD   LN%D   SN%D   RN%D   SNN0C   SNN1C
 1991 223     3     0    0.0    0.0    0.0   0.00   0.00    0.0    0.0    0.0    0.0   0.00   0.00    0.00    0.00
 1991 224     4     1    0.0    0.0    0.0   0.00   0.00    0.0    0.0    0.0    0.0   0.00   0.00    0.00    0.00
 1991 225     5     2    0.0    0.0    0.0   0.00   0.00    0.0    0.0    0.0    0.0   0.00   0.00    0.00    0.00
 1991 226     6     3    0.0    0.0    0.0   0.00   0.00    0.0    0.0    0.0    0.0   0.00   0.00    0.00    0.00
 1991 227     7     4    0.0    0.0    0.0   0.00   0.00    0.0    0.0    0.0    0.0   0.00   0.00    0.00    0.00
 1991 228     8     5    0.0    0.0    0.0   0.00   0.00    0.0    0.0    0.0    0.0   0.00   0.00    0.00    0.00
 1991 229     9     6    0.0    0.0    0.0   0.00   0.00    0.0    0.0    0.0    0.0   0.00   0.00    0.00    0.00
 1991 230    10     7    1.2    0.0    1.2   0.00   4.40    0.0    0.6    0.6    4.4   4.40   0.00    0.00    0.00
 1991 231    11     8    1.3    0.0    1.3   0.00   4.53    0.2    0.6    0.6    4.5   4.53   1.09    0.00    0.00
 1991 232    12     9    1.3    0.0    1.3   0.00   4.53    0.2    0.6    0.6    4.5   4.53   1.06    0.00    0.00
 1991 233    13    10    1.3    0.0    1.3   0.00   4.47    0.2    0.6    0.6    4.5   4.47   1.14    0.00    0.00
 1991 234    14    11    1.2    0.0    1.2   0.00   4.44    0.2    0.6    0.6    4.4   4.44   1.15    0.00    0.00
 1991 235    15    12    1.2    0.0    1.2   0.00   4.41    0.2    0.6    0.6    4.4   4.41   1.19    0.00    0.00
 1991 236    16    13    1.2    0.0    1.2   0.00   4.39    0.3    0.6    0.6    4.4   4.39   1.20    0.00    0.00
 1991 237    17    14    1.2    0.0    1.2   0.00   4.37    0.3    0.6    0.6    4.4   4.37   1.21    0.00    0.01
 1991 238    18    15    1.2    0.0    1.2   0.00   4.37    0.3    0.6    0.6    4.4   4.37   1.14    0.00    0.01
 1991 239    19    16    1.2    0.0    1.2   0.00   4.00    0.3    0.7    0.6    4.0   4.00   1.12    0.00    0.01
 1991 240    20    17    1.3    0.0    1.3   0.00   3.70    0.4    0.8    0.5    3.7   3.70   1.16    0.00    0.01
 1991 241    21    18    1.5    0.0    1.5   0.00   3.57    0.7    1.0    0.5    3.6   3.57   1.15    0.00    0.01
 1991 242    22    19    1.8    0.0    1.8   0.00   3.49    1.0    1.3    0.5    3.5   3.49   1.11    0.00    0.01
 1991 243    23    20    2.2    0.0    2.2   0.00   3.88    1.4    1.7    0.5    3.9   3.88   1.14    0.00    0.01
 1991 244    24    21    2.4    0.0    2.4   0.00   3.97    1.7    1.9    0.6    4.0   3.97   1.29    0.00    0.01
 1991 245    25    22    2.6    0.0    2.6   0.00   3.83    1.8    2.0    0.5    3.8   3.83   1.13    0.00    0.02
 1991 246    26    23    2.8    0.0    2.8   0.00   3.60    2.2    2.3    0.5    3.6   3.60   1.21    0.00    0.02
 1991 247    27    24    3.2    0.0    3.2   0.00   3.50    2.9    2.7    0.5    3.5   3.50   1.34    0.00    0.02
 1991 248    28    25    3.8    0.0    3.8   0.00   3.44    3.7    3.3    0.5    3.4   3.44   1.31    0.00    0.03
 1991 249    29    26    4.6    0.0    4.6   0.00   3.55    4.3    4.1    0.5    3.5   3.55   1.10    0.00    0.03
 1991 250    30    27    5.3    0.0    5.3   0.00   3.75    5.1    4.7    0.5    3.7   3.75   1.13    0.00    0.04
 1991 251    31    28    5.7    0.0    5.7   0.00   3.79    5.6    5.2    0.5    3.8   3.79   1.16    0.00    0.04
 1991 252    32    29    6.1    0.0    6.1   0.00   3.74    6.6    5.6    0.5    3.7   3.74   1.31    0.00    0.05
 1991 253    33    30    6.6    0.0    6.6   0.00   3.63    7.5    6.1    0.5    3.6   3.63   1.29    0.00    0.06
 1991 254    34    31    7.3    0.0    7.3   0.00   3.53    8.7    6.8    0.5    3.5   3.53   1.28    0.00    0.07
 1991 255    35    32    8.2    0.0    8.2   0.00   3.40   10.0    7.7    0.5    3.4   3.40   1.24    0.00    0.08
 1991 256    36    33    9.5    0.0    9.5   0.00   3.31   11.4    9.1    0.5    3.3   3.31   1.17    0.00    0.09
 1991 257    37    34   11.3    0.0   11.3   0.00   3.67   13.2   10.8    0.5    3.7   3.67   1.11    0.00    0.11
 1991 258    38    35   12.1    0.0   12.1   0.00   3.83   14.1   11.5    0.5    3.8   3.83   1.15    0.00    0.13
 1991 259    39    36   12.3    0.0   12.3   0.00   3.51   14.6   11.8    0.5    3.5   3.51   1.16    0.00    0.14
 1991 260    40    37   13.5    0.0   13.5   0.00   3.92   16.2   13.0    0.5    3.9   3.92   1.15    0.00    0.16
 1991 261    41    38   13.4    0.0   13.4   0.00   3.69   17.3   12.9    0.5    3.7   3.69   1.25    0.00    0.18
 1991 262    42    39   13.9    0.0   13.9   0.00   3.62   18.8   13.4    0.5    3.6   3.62   1.28    0.00    0.20
 1991 263    43    40   15.8    0.0   15.8   0.00   3.78   20.5   15.3    0.5    3.8   3.78   1.15    0.00    0.24
 1991 264    44    41   17.5    0.0   17.5   0.00   3.68   22.3   17.0    0.5    3.7   3.68   1.11    0.00    0.27
 1991 265    45    42   18.4    0.0   18.4   0.00   3.58   24.8   17.9    0.5    3.6   3.58   1.22    0.00    0.30
 1991 266    46    43   19.2    0.0   19.2   0.00   3.61   26.9   18.7    0.5    3.6   3.61   1.28    0.00    0.33
 1991 267    47    44   19.8    0.0   19.8   0.00   3.56   28.3   19.3    0.5    3.6   3.56   1.22    0.00    0.38
 1991 268    48    45   21.0    0.0   21.0   0.00   3.53   30.1   20.4    0.5    3.5   3.53   1.18    0.00    0.43
 1991 269    49    46   22.4    0.0   22.4   0.00   3.51   32.6   21.8    0.6    3.5   3.51   1.18    0.00    0.48
 1991 270    50    47   25.0    0.0   25.0   0.00   3.47   35.4   24.3    0.7    3.5   3.47   1.13    0.00    0.53
 1991 271    51    48   26.3    0.0   26.3   0.00   3.49   38.5   25.6    0.7    3.5   3.49   1.20    0.00    0.59
 1991 272    52    49   27.4    0.0   27.4   0.00   3.45   40.5   26.6    0.8    3.5   3.45   1.18    0.00    0.66
 1991 273    53    50   29.0    0.0   29.0   0.00   3.42   43.0   28.1    0.9    3.4   3.42   1.16    0.00    0.73
 1991 274    54    51   30.3    0.0   30.3   0.00   3.41   45.5   29.4    1.0    3.4   3.41   1.16    0.00    0.81
 1991 275    55    52   31.5    0.0   31.5   0.00   3.40   48.1   30.5    1.1    3.4   3.40   1.17    0.00    0.89
 1991 276    56    53   32.7    0.0   32.7   0.00   3.38   50.6   31.5    1.2    3.4   3.38   1.16    0.00    0.98
 1991 277    57    54   34.3    0.0   34.3   0.00   3.35   52.8   32.9    1.3    3.4   3.35   1.13    0.00    1.07
 1991 278    58    55   36.0    0.0   36.0   0.00   3.40   53.8   34.5    1.5    3.4   3.40   1.08    0.00    1.17
 1991 279    59    56   36.5    0.0   36.5   0.00   3.39   55.5   34.9    1.5    3.4   3.39   1.14    0.00    1.26
 1991 280    60    57   37.0    0.0   37.0   0.00   3.38   56.6   35.4    1.6    3.4   3.38   1.14    0.00    1.37
 1991 281    61    58   37.6    0.0   37.6   0.00   3.35   58.9   35.9    1.7    3.3   3.35   1.17    0.00    1.47
 1991 282    62    59   39.0    0.0   39.0   0.00   3.30   60.6   37.1    1.9    3.3   3.30   1.13    0.00    1.58
 1991 283    63    60   41.0    0.0   41.0   0.00   3.28   64.3   38.8    2.2    3.3   3.28   1.14    0.00    1.69
 1991 284    64    61   43.6    0.0   43.6   0.00   3.26   68.1   40.9    2.7    3.3   3.26   1.13    0.00    1.82
 1991 285    65    62   47.3    0.0   47.3   0.00   3.22   72.9   43.9    3.5    3.2   3.22   1.12    0.00    1.94
 1991 286    66    63   53.0    0.0   53.0   0.00   3.16   78.6   48.1    4.9    3.2   3.16   1.10    0.00    2.08
 1991 287    67    64   57.5    0.0   57.5   0.00   3.11   82.5   51.2    6.3    3.1   3.11   1.07    0.00    2.21
 1991 288    68    65   60.4    0.0   60.4   0.00   3.08   85.3   53.1    7.3    3.1   3.08   1.07    0.00    2.34
 1991 289    69    66   61.9    0.0   61.9   0.00   3.02   86.9   53.9    8.0    3.0   3.02   1.07    0.00    2.47
 1991 290    70    67   63.3    0.0   63.3   0.00   3.03   89.9   54.9    8.4    3.0   3.03   1.10    0.00    2.60
 1991 291    71    68   65.0    0.0   65.0   0.00   2.99   93.6   55.9    9.1    3.0   2.99   1.10    0.00    2.74
 1991 292    72    69   67.2    0.0   67.2   0.00   2.91   96.9   56.9   10.3    2.9   2.91   1.09    0.00    2.89
 1991 293    73    70   69.1    0.0   69.1   0.00   2.80   99.7   57.5   11.7    2.8   2.80   1.06    0.00    3.04
 1991 294    74    71   71.0    0.0   71.0   0.00   2.64  101.9   57.6   13.4    2.6   2.64   1.04    0.00    3.20
 1991 295    75    72   72.8    0.0   72.8   0.00   2.44  103.9   57.3   15.5    2.4   2.44   1.04    0.00    3.36
 1991 296    76    73   74.4    0.0   74.4   0.00   2.39  105.6   57.7   16.7    2.4   2.39   1.04    0.00    3.52
 1991 297    77    74   75.8    0.0   75.8   0.00   2.36  107.1   58.2   17.6    2.4   2.36   1.05    0.00    3.68
 1991 298    78    75   77.1    0.0   77.1   0.00   2.31  108.5   58.5   18.6    2.3   2.31   1.05    0.00    3.84
 1991 299    79    76   78.1    0.0   78.1   0.00   2.18  109.6   57.8   20.3    2.2   2.18   1.03    0.00    4.00
 1991 300    80    77   79.1    0.0   79.1   0.00   2.09  110.6   57.4   21.7    2.1   2.09   1.03    0.00    4.16
 1991 301    81    78   80.0    0.0   80.0   0.00   2.04  111.5   57.3   22.7    2.0   2.04   1.03    0.00    4.32
 1991 302    82    79   80.8    0.0   80.8   0.00   2.00  112.4   58.1   22.7    2.0   2.00   1.04    0.00    4.48
 1991 303    83    80   81.4    0.0   81.4   0.00   1.95  113.0   58.1   23.3    1.9   1.95   1.04    0.00    4.65
 1991 304    84    81   81.9    0.0   81.9   0.00   1.90  113.6   57.9   24.0    1.9   1.90   1.04    0.00    4.81
 1991 305    85    82   82.4    0.0   82.4   0.00   1.81  114.1   57.0   25.4    1.8   1.81   1.03    0.00    4.97
 1991 306    86    83   83.0    0.0   83.0   0.00   1.74  114.7   56.3   26.7    1.7   1.74   1.00    0.00    5.13
 1991 307    87    84   83.6    0.0   83.6   0.00   1.68  115.4   55.6   28.0    1.7   1.68   0.98    0.00    5.29
 1991 308    88    85   84.1    0.0   84.1   0.00   1.63  116.0   54.9   29.2    1.6   1.63   0.94    0.00    5.46
 1991 309    89    86   84.7    0.0   84.7   0.00   1.57  116.6   54.2   30.5    1.6   1.57   0.93    0.00    5.62
 1991 310    90    87   85.3    0.0   85.3   0.00   1.53  117.3   53.6   31.7    1.5   1.53   0.93    0.00    5.78
 1991 311    91    88   85.9    0.0   85.9   0.00   1.49  118.0   53.1   32.8    1.5   1.49   0.91    0.00    5.95
 1991 312    92    89   87.4    0.0   87.4   0.00   1.48  119.7   53.3   34.1    1.5   1.48   0.90    0.00    6.11
 1991 313    93    90   88.6    0.0   88.6   0.00   1.47  121.1   53.4   35.3    1.5   1.47   0.87    0.00    6.27
 1991 314    94    91   89.8    0.0   89.8   0.00   1.45  122.5   53.3   36.6    1.4   1.45   0.86    0.00    6.44
 1991 315    95    92   90.9    0.0   90.9   0.00   1.44  123.8   53.4   37.5    1.4   1.44   0.84    0.00    6.61
 1991 316    96    93   91.9    0.0   91.9   0.00   1.44  124.9   53.6   38.3    1.4   1.44   0.81    0.00    6.77
 1991 317    97    94   92.7    0.0   92.7   0.00   1.43  126.0   53.6   39.1    1.4   1.43   0.80    0.00    6.94
 1991 318    98    95   93.6    0.0   93.6   0.00   1.41  127.0   53.5   40.0    1.4   1.41   0.80    0.00    7.11
 1991 319    99    96   94.3    0.0   94.3   0.00   1.39  127.9   53.2   41.1    1.4   1.39   0.81    0.00    7.28
 1991 320   100    97   95.0    0.0   95.0   0.00   1.37  128.7   53.0   42.0    1.4   1.37   0.79    0.00    7.45
 1991 321   101    98   95.6    0.0   95.6   0.00   1.35  129.5   52.8   42.9    1.4   1.35   0.78    0.00    7.62
 1991 322   102    99   96.3    0.0   96.3   0.00   1.33  130.2   52.4   43.9    1.3   1.33   0.77    0.00    7.79
 1991 323   103   100   96.9    0.0   96.9   0.00   1.31  131.0   52.1   44.7    1.3   1.31   0.74    0.00    7.96
 1991 324   104   101   97.4    0.0   97.4   0.00   1.29  131.6   51.8   45.6    1.3   1.29   0.73    0.00    8.14
 1991 325   105   102   98.0    0.0   98.0   0.00   1.26  132.4   51.5   46.5    1.3   1.26   0.71    0.00    8.31
 1991 326   106   103   98.6    0.0   98.6   0.00   1.38  133.2   55.5   43.1    1.4   1.38   0.70    0.00    8.49
 1991 327   107   104   99.2    0.0   99.2   0.00   1.38  134.0   55.0   44.2    1.4   1.38   0.70    0.00    8.66
 1991 328   108   105   99.8    0.0   99.8   0.00   1.39  134.9   54.7   45.1    1.4   1.39   0.70    0.00    8.84
 1991 329   109   106  100.3    0.0  100.3   0.00   1.40  135.5   54.4   45.9    1.4   1.40   0.71    0.00    9.01
 1991 330   110   107  100.7    0.0  100.7   0.00   1.41  136.0   54.0   46.7    1.4   1.41   0.71    0.00    9.19
 1991 331   111   108  101.1    0.0  101.1   0.00   1.41  136.7   53.6   47.6    1.4   1.41   0.70    0.00    9.37
 1991 332   112   109  101.7    0.0  101.7   0.00   1.42  137.5   53.0   48.7    1.4   1.42   0.69    0.00    9.55
 1991 333   113   110  102.3    0.0  102.3   0.00   1.42  138.4   52.4   49.9    1.4   1.42   0.70    0.00    9.73
 1991 334   114   111  102.9    0.0  102.9   0.00   1.43  139.3   51.7   51.2    1.4   1.43   0.69    0.00    9.91
 1991 335   115   112  103.6    0.0  103.6   0.00   1.44  140.4   51.1   52.5    1.4   1.44   0.69    0.00   10.09
 1991 336   116   113  104.4    0.0  104.4   0.00   1.45  141.6   50.5   53.9    1.4   1.45   0.68    0.00   10.28
 1991 337   117   114  105.1    0.0  105.1   0.00   1.46  142.8   49.8   55.3    1.5   1.46   0.69    0.00   10.47
 1991 338   118   115  105.7    0.0  105.7   0.00   1.46  143.9   48.9   56.7    1.5   1.46   0.69    0.00   10.66
 1991 339   119   116  106.3    3.3  103.0   1.38   1.43  144.8   47.7   55.3    1.4   1.43   0.70    0.00   10.85
 1991 340   120   117  106.8    6.4  100.4   1.38   1.39  145.7   46.5   53.9    1.4   1.39   0.70    0.00   11.04
 1991 341   121   118  107.5    9.5   98.0   1.37   1.36  146.9   45.4   52.6    1.4   1.36   0.71    0.00   11.24
 1991 342   122   119  108.2   12.5   95.6   1.36   1.32  147.9   44.3   51.3    1.3   1.32   0.71    0.00   11.43
 1991 343   123   120  108.7   15.1   93.6   1.35   1.30  148.9   43.6   50.0    1.3   1.30   0.72    0.00   11.63
 1991 344   124   121  109.2   18.1   91.0   1.34   1.26  149.6   42.2   48.9    1.3   1.26   0.72    0.00   11.83
 1991 345   125   122  109.7   21.1   88.6   1.34   1.23  150.4   41.0   47.5    1.2   1.23   0.73    0.00   12.04
 1991 346   126   123  115.4   23.5   91.9   1.33   1.28  159.4   42.8   49.2    1.3   1.28   0.79    0.00   12.24
 1991 347   127   124  117.2   26.4   90.9   1.33   1.26  162.3   42.1   48.8    1.3   1.26   0.80    0.00   12.46
 1991 348   128   125  118.2   28.6   89.5   1.34   1.24  163.7   41.5   48.0    1.2   1.24   0.82    0.00   12.68
 1991 349   129   126  119.0   31.1   87.9   1.34   1.23  165.0   41.0   46.9    1.2   1.23   0.83    0.00   12.91
 1991 350   130   127  119.6   34.1   85.5   1.34   1.18  165.9   39.6   45.9    1.2   1.18   0.83    0.00   13.14
 1991 351   131   128  120.1   37.1   83.0   1.34   1.15  166.7   38.5   44.6    1.2   1.15   0.83    0.00   13.37
 1991 352   132   129  120.9   40.1   80.8   1.33   1.12  167.8   37.4   43.4    1.1   1.12   0.84    0.00   13.61
 1991 353   133   130  121.4   43.0   78.4   1.33   1.09  168.6   36.3   42.1    1.1   1.09   0.84    0.00   13.84
 1991 354   134   131  121.9   45.9   76.0   1.33   1.05  169.3   35.2   40.8    1.1   1.05   0.84    0.00   14.07
 1991 355   135   132  122.5   48.8   73.7   1.32   1.02  170.2   34.1   39.6    1.0   1.02   0.84    0.00   14.31
 1991 356   136   133  123.2   51.6   71.6   1.32   1.00  171.2   33.4   38.2    1.0   1.00   0.85    0.00   14.55
 1991 357   137   134  123.8   54.4   69.4   1.31   0.96  172.1   32.2   37.3    1.0   0.96   0.86    0.00   14.79
 1991 358   138   135  124.3   57.1   67.2   1.31   0.93  172.8   31.1   36.1    0.9   0.93   0.86    0.00   15.03
 1991 359   139   136  125.1   59.6   65.5   1.30   0.91  173.9   30.3   35.2    0.9   0.91   0.86    0.00   15.27
 1991 360   140   137  125.8   61.2   64.6   1.29   0.89  174.9   29.9   34.7    0.9   0.89   0.87    0.00   15.51
 1991 361   141   138  126.4   63.0   63.4   1.29   0.88  175.8   29.4   34.0    0.9   0.88   0.86    0.00   15.76
 1991 362   142   139  127.2   65.2   62.0   1.28   0.86  176.9   28.7   33.3    0.9   0.86   0.87    0.00   16.00
 1991 363   143   140  127.8   67.6   60.2   1.27   0.83  177.8   27.9   32.3    0.8   0.83   0.87    0.00   16.25
 1991 364   144   141  128.5   70.1   58.4   1.27   0.81  178.8   27.0   31.4    0.8   0.81   0.87    0.00   16.50
 1991 365   145   142  129.1   72.5   56.6   1.26   0.78  179.7   26.2   30.4    0.8   0.78   0.88    0.00   16.75
 1992 001   146   143  129.8   74.9   54.9   1.25   0.77  180.6   25.7   29.2    0.8   0.77   0.89    0.00   17.00
 1992 002   147   144  130.4   77.2   53.2   1.24   0.75  181.5   24.9   28.3    0.7   0.75   0.90    0.00   17.25
 1992 003   148   145  131.0   78.8   52.2   1.24   0.72  182.2   24.2   28.0    0.7   0.72   0.90    0.00   17.50
 1992 004   149   146  131.7   80.7   51.0   1.23   0.71  183.3   23.6   27.4    0.7   0.71   0.90    0.00   17.75
 1992 005   150   147  132.4   82.6   49.8   1.22   0.69  184.2   23.1   26.8    0.7   0.69   0.90    0.00   18.01
 1992 006   151   148  133.1   84.5   48.6   1.21   0.67  185.0   22.5   26.1    0.7   0.67   0.91    0.00   18.26
 1992 007   152   149  133.7   86.5   47.2   1.20   0.65  185.9   21.8   25.3    0.7   0.65   0.92    0.00   18.52
 1992 008   153   150  134.4   88.5   45.8   1.19   0.63  186.7   21.2   24.6    0.6   0.63   0.92    0.00   18.78
 1992 009   154   151  135.0   90.5   44.6   1.18   0.62  187.6   20.7   23.9    0.6   0.62   0.93    0.00   19.04
 1992 010   155   152  135.7   92.4   43.4   1.17   0.61  188.5   20.3   23.1    0.6   0.61   0.94    0.00   19.30
 1992 011   156   153  135.7   92.4   43.4   1.17   0.61  189.4   20.3   23.1    0.6   0.61   0.94    0.00   19.30
 1992 012   157   154  135.7   92.4   43.4   1.17   0.61  190.3   20.3   23.1    0.6   0.61   0.94    0.00   19.30
 1992 013   158   155  135.7   92.4   43.4   1.17   0.61  191.2   20.3   23.1    0.6   0.61   0.94    0.00   19.30
 1992 014   159   156  135.7   92.4   43.4   1.17   0.61  192.0   20.3   23.1    0.6   0.61   0.94    0.00   19.30

*DSSAT Cropping System Model Ver. 4.0.2.000               Aug 11, 2016; 15:17:37

*RUN   3        : UYMZ                    
 MODEL          : MZCER040 - Maize           
 EXPERIMENT     : UYMZ0142 MZ    late to create DSS                             
 TREATMENT  1   : UYMZ                    

@YEAR DOY   DAS   DAP   CNAD   GNAD   VNAD   GN%D   VN%D   NUPC   LNAD   SNAD   LN%D   SN%D   RN%D   SNN0C   SNN1C
 1992 223     3     0    0.0    0.0    0.0   0.00   0.00    0.0    0.0    0.0    0.0   0.00   0.00    0.00    0.00
 1992 224     4     1    0.0    0.0    0.0   0.00   0.00    0.0    0.0    0.0    0.0   0.00   0.00    0.00    0.00
 1992 225     5     2    0.0    0.0    0.0   0.00   0.00    0.0    0.0    0.0    0.0   0.00   0.00    0.00    0.00
 1992 226     6     3    0.0    0.0    0.0   0.00   0.00    0.0    0.0    0.0    0.0   0.00   0.00    0.00    0.00
 1992 227     7     4    0.0    0.0    0.0   0.00   0.00    0.0    0.0    0.0    0.0   0.00   0.00    0.00    0.00
 1992 228     8     5    0.0    0.0    0.0   0.00   0.00    0.0    0.0    0.0    0.0   0.00   0.00    0.00    0.00
 1992 229     9     6    0.0    0.0    0.0   0.00   0.00    0.0    0.0    0.0    0.0   0.00   0.00    0.00    0.00
 1992 230    10     7    0.0    0.0    0.0   0.00   0.00    0.0    0.0    0.0    0.0   0.00   0.00    0.00    0.00
 1992 231    11     8    0.0    0.0    0.0   0.00   0.00    0.0    0.0    0.0    0.0   0.00   0.00    0.00    0.00
 1992 232    12     9    0.0    0.0    0.0   0.00   0.00    0.0    0.0    0.0    0.0   0.00   0.00    0.00    0.00
 1992 233    13    10    0.0    0.0    0.0   0.00   0.00    0.0    0.0    0.0    0.0   0.00   0.00    0.00    0.00
 1992 234    14    11    1.2    0.0    1.2   0.00   4.40    0.0    0.6    0.6    4.4   4.40   0.00    0.00    0.00
 1992 235    15    12    1.3    0.0    1.3   0.00   4.55    0.2    0.6    0.6    4.5   4.55   1.08    0.00    0.00
 1992 236    16    13    1.3    0.0    1.3   0.00   4.53    0.2    0.6    0.6    4.5   4.53   1.11    0.00    0.00
 1992 237    17    14    1.3    0.0    1.3   0.00   4.51    0.2    0.6    0.6    4.5   4.51   1.13    0.00    0.00
 1992 238    18    15    1.3    0.0    1.3   0.00   4.49    0.2    0.6    0.6    4.5   4.49   1.15    0.00    0.00
 1992 239    19    16    1.3    0.0    1.3   0.00   4.48    0.2    0.6    0.6    4.5   4.48   1.15    0.00    0.00
 1992 240    20    17    1.2    0.0    1.2   0.00   4.45    0.2    0.6    0.6    4.5   4.45   1.16    0.00    0.00
 1992 241    21    18    1.2    0.0    1.2   0.00   4.43    0.3    0.6    0.6    4.4   4.43   1.14    0.00    0.01
 1992 242    22    19    1.2    0.0    1.2   0.00   4.41    0.3    0.6    0.6    4.4   4.41   1.16    0.00    0.01
 1992 243    23    20    1.2    0.0    1.2   0.00   4.41    0.3    0.6    0.6    4.4   4.41   1.12    0.00    0.01
 1992 244    24    21    1.2    0.0    1.2   0.00   4.37    0.3    0.6    0.6    4.4   4.37   1.18    0.00    0.01
 1992 245    25    22    1.2    0.0    1.2   0.00   4.37    0.3    0.6    0.6    4.4   4.37   1.20    0.00    0.01
 1992 246    26    23    1.2    0.0    1.2   0.00   4.36    0.3    0.6    0.6    4.4   4.36   1.16    0.00    0.01
 1992 247    27    24    1.2    0.0    1.2   0.00   4.25    0.4    0.6    0.6    4.3   4.25   1.27    0.00    0.01
 1992 248    28    25    1.2    0.0    1.2   0.00   3.93    0.5    0.7    0.5    3.9   3.93   1.26    0.00    0.02
 1992 249    29    26    1.4    0.0    1.4   0.00   3.84    0.7    0.8    0.5    3.8   3.84   1.23    0.00    0.02
 1992 250    30    27    1.5    0.0    1.5   0.00   3.86    1.0    1.0    0.5    3.9   3.86   1.24    0.00    0.02
 1992 251    31    28    1.7    0.0    1.7   0.00   3.75    1.2    1.2    0.5    3.8   3.75   1.22    0.00    0.02
 1992 252    32    29    1.9    0.0    1.9   0.00   3.69    1.4    1.4    0.5    3.7   3.69   1.08    0.00    0.03
 1992 253    33    30    2.2    0.0    2.2   0.00   3.69    1.8    1.7    0.5    3.7   3.69   1.16    0.00    0.03
 1992 254    34    31    2.5    0.0    2.5   0.00   3.64    2.2    2.0    0.5    3.6   3.64   1.18    0.00    0.03
 1992 255    35    32    2.9    0.0    2.9   0.00   3.62    2.6    2.4    0.5    3.6   3.62   1.13    0.00    0.04
 1992 256    36    33    3.3    0.0    3.3   0.00   3.71    3.4    2.8    0.5    3.7   3.71   1.26    0.00    0.04
 1992 257    37    34    3.7    0.0    3.7   0.00   3.88    3.8    3.2    0.5    3.9   3.88   1.20    0.00    0.05
 1992 258    38    35    4.0    0.0    4.0   0.00   3.82    4.4    3.4    0.5    3.8   3.82   1.25    0.00    0.06
 1992 259    39    36    4.3    0.0    4.3   0.00   3.70    5.0    3.8    0.5    3.7   3.70   1.25    0.00    0.07
 1992 260    40    37    4.7    0.0    4.7   0.00   3.60    5.5    4.2    0.5    3.6   3.60   1.16    0.00    0.08
 1992 261    41    38    5.3    0.0    5.3   0.00   3.43    6.4    4.9    0.5    3.4   3.43   1.17    0.00    0.09
 1992 262    42    39    6.3    0.0    6.3   0.00   3.79    8.0    5.8    0.5    3.8   3.79   1.29    0.00    0.10
 1992 263    43    40    6.7    0.0    6.7   0.00   3.79    8.9    6.2    0.5    3.8   3.79   1.27    0.00    0.11
 1992 264    44    41    7.2    0.0    7.2   0.00   3.60    9.8    6.6    0.5    3.6   3.60   1.22    0.00    0.13
 1992 265    45    42    7.9    0.0    7.9   0.00   3.40   10.9    7.4    0.5    3.4   3.40   1.19    0.00    0.15
 1992 266    46    43    9.3    0.0    9.3   0.00   3.86   12.1    8.7    0.5    3.9   3.86   1.12    0.00    0.17
 1992 267    47    44    9.5    0.0    9.5   0.00   3.75   13.1    9.0    0.5    3.7   3.75   1.19    0.00    0.19
 1992 268    48    45   10.1    0.0   10.1   0.00   3.80   13.3    9.5    0.5    3.8   3.80   1.11    0.00    0.21
 1992 269    49    46   10.5    0.0   10.5   0.00   3.90   15.0    9.9    0.5    3.9   3.90   1.33    0.00    0.23
 1992 270    50    47   10.6    0.0   10.6   0.00   3.89   15.3   10.1    0.5    3.9   3.89   1.30    0.00    0.26
 1992 271    51    48   10.7    0.0   10.7   0.00   3.72   15.4   10.2    0.5    3.7   3.72   1.17    0.00    0.29
 1992 272    52    49   11.3    0.0   11.3   0.00   3.65   16.6   10.8    0.5    3.7   3.65   1.17    0.00    0.32
 1992 273    53    50   12.1    0.0   12.1   0.00   3.59   17.9   11.6    0.5    3.6   3.59   1.16    0.00    0.35
 1992 274    54    51   13.1    0.0   13.1   0.00   3.67   19.6   12.6    0.5    3.7   3.67   1.16    0.00    0.39
 1992 275    55    52   13.9    0.0   13.9   0.00   3.44   20.2   13.4    0.5    3.4   3.44   1.10    0.00    0.43
 1992 276    56    53   15.4    0.0   15.4   0.00   3.44   22.0   14.9    0.5    3.4   3.44   1.10    0.00    0.47
 1992 277    57    54   18.5    0.0   18.5   0.00   3.78   26.0   17.9    0.5    3.8   3.78   1.15    0.00    0.51
 1992 278    58    55   20.0    0.0   20.0   0.00   3.68   28.1   19.5    0.5    3.7   3.68   1.14    0.00    0.55
 1992 279    59    56   20.8    0.0   20.8   0.00   3.58   28.6   20.3    0.5    3.6   3.58   1.09    0.00    0.60
 1992 280    60    57   21.7    0.0   21.7   0.00   3.61   31.7   21.2    0.5    3.6   3.61   1.24    0.00    0.64
 1992 281    61    58   22.2    0.0   22.2   0.00   3.61   32.9   21.7    0.5    3.6   3.61   1.22    0.00    0.70
 1992 282    62    59   22.8    0.0   22.8   0.00   3.56   34.4   22.3    0.5    3.6   3.56   1.20    0.00    0.76
 1992 283    63    60   23.8    0.0   23.8   0.00   3.53   36.3   23.3    0.5    3.5   3.53   1.17    0.00    0.82
 1992 284    64    61   25.4    0.0   25.4   0.00   3.50   39.1   24.9    0.6    3.5   3.50   1.16    0.00    0.89
 1992 285    65    62   27.6    0.0   27.6   0.00   3.47   41.2   26.9    0.6    3.5   3.47   1.12    0.00    0.96
 1992 286    66    63   30.1    0.0   30.1   0.00   3.44   45.1   29.4    0.8    3.4   3.44   1.14    0.00    1.04
 1992 287    67    64   32.5    0.0   32.5   0.00   3.41   49.0   31.5    0.9    3.4   3.41   1.15    0.00    1.12
 1992 288    68    65   35.8    0.0   35.8   0.00   3.38   53.2   34.5    1.2    3.4   3.38   1.14    0.00    1.20
 1992 289    69    66   38.4    0.0   38.4   0.00   3.33   54.7   36.9    1.5    3.3   3.33   1.07    0.00    1.30
 1992 290    70    67   41.2    0.0   41.2   0.00   3.30   57.8   39.3    1.9    3.3   3.30   1.08    0.00    1.38
 1992 291    71    68   43.7    0.0   43.7   0.00   3.27   62.9   41.3    2.3    3.3   3.27   1.15    0.00    1.47
 1992 292    72    69   45.5    0.0   45.5   0.00   3.25   66.7   42.8    2.7    3.3   3.25   1.16    0.00    1.57
 1992 293    73    70   47.7    0.0   47.7   0.00   3.23   67.7   44.6    3.1    3.2   3.23   1.08    0.00    1.69
 1992 294    74    71   49.6    0.0   49.6   0.00   3.21   72.6   46.1    3.5    3.2   3.21   1.15    0.00    1.79
 1992 295    75    72   51.4    0.0   51.4   0.00   3.20   76.4   47.5    3.9    3.2   3.20   1.15    0.00    1.91
 1992 296    76    73   53.9    0.0   53.9   0.00   3.17   80.3   49.4    4.5    3.2   3.17   1.14    0.00    2.04
 1992 297    77    74   57.7    0.0   57.7   0.00   3.14   85.2   52.1    5.5    3.1   3.14   1.13    0.00    2.18
 1992 298    78    75   62.6    0.0   62.6   0.00   3.10   91.0   55.5    7.1    3.1   3.10   1.11    0.00    2.32
 1992 299    79    76   66.4    0.0   66.4   0.00   3.06   93.6   57.9    8.4    3.1   3.06   1.07    0.00    2.47
 1992 300    80    77   71.6    0.0   71.6   0.00   3.03  101.5   61.2   10.4    3.0   3.03   1.12    0.00    2.61
 1992 301    81    78   77.2    0.0   77.2   0.00   2.98  108.4   64.5   12.8    3.0   2.98   1.12    0.00    2.76
 1992 302    82    79   79.1    0.0   79.1   0.00   3.00  110.0   65.7   13.4    3.0   3.00   1.10    0.00    2.93
 1992 303    83    80   80.5    0.0   80.5   0.00   2.96  114.7   66.3   14.2    3.0   2.96   1.13    0.00    3.08
 1992 304    84    81   82.7    0.0   82.7   0.00   2.93  118.4   67.4   15.3    2.9   2.93   1.12    0.00    3.26
 1992 305    85    82   84.5    0.0   84.5   0.00   2.87  121.4   68.1   16.5    2.9   2.87   1.10    0.00    3.44
 1992 306    86    83   86.3    0.0   86.3   0.00   2.76  123.9   68.3   18.0    2.8   2.76   1.07    0.00    3.63
 1992 307    87    84   87.9    0.0   87.9   0.00   2.61  125.9   67.9   20.0    2.6   2.61   1.05    0.00    3.82
 1992 308    88    85   89.1    0.0   89.1   0.00   2.55  127.5   68.0   21.1    2.6   2.55   1.02    0.00    4.02
 1992 309    89    86   90.0    0.0   90.0   0.00   2.54  128.9   68.4   21.6    2.5   2.54   1.01    0.00    4.22
 1992 310    90    87   91.0    0.0   91.0   0.00   2.53  130.3   68.8   22.2    2.5   2.53   0.99    0.00    4.41
 1992 311    91    88   91.7    0.0   91.7   0.00   2.49  131.5   68.8   23.0    2.5   2.49   0.96    0.00    4.61
 1992 312    92    89   92.3    0.0   92.3   0.00   2.42  132.3   68.4   23.9    2.4   2.42   0.93    0.00    4.82
 1992 313    93    90   92.7    0.0   92.7   0.00   2.33  133.0   67.6   25.1    2.3   2.33   0.91    0.00    5.02
 1992 314    94    91   93.1    0.0   93.1   0.00   2.20  133.6   66.4   26.7    2.2   2.20   0.89    0.00    5.23
 1992 315    95    92   93.6    0.0   93.6   0.00   2.14  134.2   66.8   26.8    2.1   2.14   0.89    0.00    5.43
 1992 316    96    93   94.1    0.0   94.1   0.00   1.97  134.9   65.5   28.6    2.0   1.97   0.90    0.00    5.64
 1992 317    97    94   94.6    0.0   94.6   0.00   1.84  135.6   64.0   30.6    1.8   1.84   0.89    0.00    5.85
 1992 318    98    95   95.2    0.0   95.2   0.00   1.76  136.2   62.9   32.3    1.8   1.76   0.87    0.00    6.05
 1992 319    99    96   95.8    0.0   95.8   0.00   1.67  136.9   61.7   34.1    1.7   1.67   0.87    0.00    6.26
 1992 320   100    97   96.3    0.0   96.3   0.00   1.61  137.6   60.7   35.6    1.6   1.61   0.87    0.00    6.47
 1992 321   101    98   97.0    0.0   97.0   0.00   1.58  138.4   60.4   36.6    1.6   1.58   0.84    0.00    6.68
 1992 322   102    99   98.1    0.0   98.1   0.00   1.57  139.8   60.5   37.6    1.6   1.57   0.82    0.00    6.89
 1992 323   103   100   99.1    0.0   99.1   0.00   1.55  141.1   60.5   38.6    1.6   1.55   0.80    0.00    7.10
 1992 324   104   101  100.0    0.0  100.0   0.00   1.52  142.3   60.0   40.0    1.5   1.52   0.78    0.00    7.31
 1992 325   105   102  100.9    0.0  100.9   0.00   1.48  143.4   59.4   41.5    1.5   1.48   0.78    0.00    7.53
 1992 326   106   103  101.7    0.0  101.7   0.00   1.46  144.4   59.2   42.5    1.5   1.46   0.79    0.00    7.74
 1992 327   107   104  102.5    0.0  102.5   0.00   1.45  145.4   59.2   43.3    1.5   1.45   0.77    0.00    7.96
 1992 328   108   105  103.2    0.0  103.2   0.00   1.44  146.4   59.2   44.0    1.4   1.44   0.76    0.00    8.18
 1992 329   109   106  103.9    0.0  103.9   0.00   1.42  147.2   58.8   45.1    1.4   1.42   0.75    0.00    8.39
 1992 330   110   107  104.5    0.0  104.5   0.00   1.39  148.1   58.4   46.1    1.4   1.39   0.74    0.00    8.61
 1992 331   111   108  105.1    0.0  105.1   0.00   1.36  148.8   57.9   47.2    1.4   1.36   0.74    0.00    8.83
 1992 332   112   109  105.6    0.0  105.6   0.00   1.34  149.6   57.4   48.2    1.3   1.34   0.72    0.00    9.05
 1992 333   113   110  106.2    0.0  106.2   0.00   1.31  150.3   57.0   49.2    1.3   1.31   0.72    0.00    9.27
 1992 334   114   111  106.8    0.0  106.8   0.00   1.28  151.0   56.5   50.3    1.3   1.28   0.72    0.00    9.50
 1992 335   115   112  107.2    0.0  107.2   0.00   1.25  151.6   55.9   51.3    1.3   1.25   0.72    0.00    9.72
 1992 336   116   113  107.7    0.0  107.7   0.00   1.37  152.3   60.4   47.3    1.4   1.37   0.70    0.00    9.94
 1992 337   117   114  108.4    0.0  108.4   0.00   1.38  153.2   60.2   48.1    1.4   1.38   0.69    0.00   10.17
 1992 338   118   115  108.9    0.0  108.9   0.00   1.39  154.0   59.9   49.0    1.4   1.39   0.68    0.00   10.39
 1992 339   119   116  109.5    0.0  109.5   0.00   1.39  155.0   59.4   50.1    1.4   1.39   0.67    0.00   10.62
 1992 340   120   117  110.2    0.0  110.2   0.00   1.40  155.9   58.9   51.2    1.4   1.40   0.67    0.00   10.85
 1992 341   121   118  110.8    0.0  110.8   0.00   1.40  156.8   58.3   52.5    1.4   1.40   0.67    0.00   11.07
 1992 342   122   119  111.2    0.0  111.2   0.00   1.41  157.6   57.6   53.6    1.4   1.41   0.67    0.00   11.31
 1992 343   123   120  111.9    0.0  111.9   0.00   1.42  158.7   57.1   54.8    1.4   1.42   0.67    0.00   11.54
 1992 344   124   121  112.6    0.0  112.6   0.00   1.43  159.7   56.4   56.1    1.4   1.43   0.67    0.00   11.77
 1992 345   125   122  113.1    0.0  113.1   0.00   1.43  160.7   55.7   57.5    1.4   1.43   0.67    0.00   12.01
 1992 346   126   123  118.3    0.0  118.3   0.00   1.50  169.7   57.1   61.1    1.5   1.50   0.72    0.00   12.25
 1992 347   127   124  120.2    0.0  120.2   0.00   1.53  173.4   57.0   63.2    1.5   1.53   0.73    0.00   12.50
 1992 348   128   125  121.1    0.0  121.1   0.00   1.54  175.1   56.2   64.9    1.5   1.54   0.73    0.00   12.77
 1992 349   129   126  121.7    4.0  117.7   1.46   1.49  176.3   54.6   63.1    1.5   1.49   0.74    0.00   13.04
 1992 350   130   127  122.2    7.0  115.2   1.44   1.46  177.2   53.5   61.7    1.5   1.46   0.74    0.00   13.31
 1992 351   131   128  122.7   10.6  112.1   1.43   1.42  178.0   52.0   60.1    1.4   1.42   0.74    0.00   13.59
 1992 352   132   129  123.1   14.6  108.5   1.42   1.38  178.8   50.4   58.1    1.4   1.38   0.75    0.00   13.86
 1992 353   133   130  123.6   18.5  105.0   1.41   1.33  179.6   48.7   56.3    1.3   1.33   0.75    0.00   14.14
 1992 354   134   131  123.9   22.4  101.5   1.40   1.29  180.2   47.1   54.4    1.3   1.29   0.76    0.00   14.42
 1992 355   135   132  124.5   26.3   98.2   1.39   1.25  181.2   45.6   52.6    1.2   1.25   0.76    0.00   14.70
 1992 356   136   133  125.0   30.0   95.0   1.38   1.21  182.0   44.1   50.9    1.2   1.21   0.77    0.00   14.98
 1992 357   137   134  125.5   33.7   91.8   1.37   1.18  182.8   43.2   48.6    1.2   1.18   0.77    0.00   15.27
 1992 358   138   135  126.0   37.3   88.7   1.35   1.16  183.7   42.3   46.4    1.2   1.16   0.78    0.00   15.55
 1992 359   139   136  126.5   40.8   85.7   1.34   1.11  184.6   40.4   45.2    1.1   1.11   0.79    0.00   15.84
 1992 360   140   137  126.9   44.0   82.9   1.34   1.06  185.2   38.8   44.0    1.1   1.06   0.79    0.00   16.13
 1992 361   141   138  127.5   46.8   80.7   1.33   1.02  186.2   37.4   43.2    1.0   1.02   0.79    0.00   16.42
 1992 362   142   139  128.0   49.6   78.4   1.32   1.00  186.9   36.4   42.0    1.0   1.00   0.79    0.00   16.71
 1992 363   143   140  128.5   52.8   75.7   1.30   0.96  187.7   35.1   40.6    1.0   0.96   0.79    0.00   17.00
 1992 364   144   141  129.1   56.0   73.1   1.29   0.95  188.6   34.6   38.5    0.9   0.95   0.80    0.00   17.29
 1992 365   145   142  129.6   58.8   70.8   1.28   0.93  189.3   34.1   36.7    0.9   0.93   0.81    0.00   17.59
 1992 366   146   143  130.0   61.2   68.8   1.27   0.92  189.9   33.5   35.3    0.9   0.92   0.82    0.00   17.88
 1993 001   147   144  130.1   63.7   66.4   1.26   0.90  190.2   32.8   33.6    0.9   0.90   0.82    0.00   18.18
 1993 002   148   145  130.4   66.3   64.1   1.25   0.88  190.6   32.2   31.9    0.9   0.88   0.83    0.00   18.48
 1993 003   149   146  130.6   68.8   61.8   1.24   0.86  191.0   31.6   30.2    0.9   0.86   0.83    0.00   18.78
 1993 004   150   147  130.8   71.8   59.0   1.23   0.84  191.3   30.5   28.5    0.8   0.84   0.84    0.00   19.08
 1993 005   151   148  131.2   74.7   56.5   1.22   0.80  191.9   29.2   27.3    0.8   0.80   0.84    0.00   19.38
 1993 006   152   149  131.8   77.6   54.3   1.21   0.76  192.8   27.9   26.4    0.8   0.76   0.85    0.00   19.68
 1993 007   153   150  132.3   80.3   52.0   1.20   0.75  193.6   27.3   24.8    0.7   0.75   0.86    0.00   19.98
 1993 008   154   151  132.8   82.9   49.9   1.18   0.72  194.2   26.4   23.5    0.7   0.72   0.86    0.00   20.28
 1993 009   155   152  133.1   85.2   47.9   1.17   0.69  194.7   25.2   22.7    0.7   0.69   0.87    0.00   20.58
 1993 010   156   153  133.8   87.6   46.2   1.16   0.66  195.7   24.3   21.9    0.7   0.66   0.88    0.00   20.89
 1993 011   157   154  134.5   90.0   44.5   1.15   0.64  196.6   23.4   21.1    0.6   0.64   0.88    0.00   21.19
 1993 012   158   155  135.3   92.3   43.1   1.14   0.62  197.7   22.7   20.3    0.6   0.62   0.89    0.00   21.50
 1993 013   159   156  136.1   94.5   41.6   1.12   0.61  198.7   22.3   19.3    0.6   0.61   0.90    0.00   21.80
 1993 014   160   157  136.8   96.6   40.2   1.11   0.60  199.8   22.0   18.2    0.6   0.60   0.91    0.00   22.11
 1993 015   161   158  137.5   98.7   38.9   1.10   0.59  200.7   21.5   17.3    0.6   0.59   0.91    0.00   22.42
 1993 016   162   159  138.0   99.5   38.5   1.09   0.59  201.3   21.5   17.0    0.6   0.59   0.92    0.00   22.73
 1993 017   163   160  138.6  100.7   37.9   1.09   0.58  202.2   21.1   16.7    0.6   0.58   0.93    0.00   23.05
 1993 018   164   161  139.4  101.9   37.4   1.08   0.57  203.2   20.9   16.6    0.6   0.57   0.94    0.00   23.36
 1993 019   165   162  139.4  101.9   37.4   1.08   0.57  204.2   20.9   16.6    0.6   0.57   0.94    0.00   23.36
 1993 020   166   163  139.4  101.9   37.4   1.08   0.57  205.1   20.9   16.6    0.6   0.57   0.94    0.00   23.36
 1993 021   167   164  139.4  101.9   37.4   1.08   0.57  206.1   20.9   16.6    0.6   0.57   0.94    0.00   23.36
 1993 022   168   165  139.4  101.9   37.4   1.08   0.57  207.1   20.9   16.6    0.6   0.57   0.94    0.00   23.36
