*WATER BALANCE OUTPUT FILE

*DSSAT Cropping System Model Ver. 4.0.2.000               Aug 11, 2016; 15:17:37

*RUN   1        : UYMZ                    
 MODEL          : MZCER040 - Maize           
 EXPERIMENT     : UYMZ0142 MZ    late to create DSS                             
 TREATMENT  1   : UYMZ                    


     WATER BALANCE PARAMETERS
     ========================                  --mm--

     Soil H20 (start) on Year/day 1990/220     490.84
     Soil H20 (final) on Year/day 1991/022     520.83
     Effective Irrigation                      102.17
     Precipitation                             751.80
     Drainage                                  175.09
     Runoff                                      5.81
     Soil Evaporation                          192.54
     Transpiration                             450.54
     Potential ET                              732.18

     Final Balance                            -0.0001


*DSSAT Cropping System Model Ver. 4.0.2.000               Aug 11, 2016; 15:17:37

*RUN   2        : UYMZ                    
 MODEL          : MZCER040 - Maize           
 EXPERIMENT     : UYMZ0142 MZ    late to create DSS                             
 TREATMENT  1   : UYMZ                    


     WATER BALANCE PARAMETERS
     ========================                  --mm--

     Soil H20 (start) on Year/day 1991/220     490.84
     Soil H20 (final) on Year/day 1992/014     480.75
     Effective Irrigation                      133.71
     Precipitation                             617.30
     Drainage                                  186.29
     Runoff                                     13.13
     Soil Evaporation                          155.95
     Transpiration                             405.72
     Potential ET                              637.18

     Final Balance                             0.0002


*DSSAT Cropping System Model Ver. 4.0.2.000               Aug 11, 2016; 15:17:37

*RUN   3        : UYMZ                    
 MODEL          : MZCER040 - Maize           
 EXPERIMENT     : UYMZ0142 MZ    late to create DSS                             
 TREATMENT  1   : UYMZ                    


     WATER BALANCE PARAMETERS
     ========================                  --mm--

     Soil H20 (start) on Year/day 1992/220     490.84
     Soil H20 (final) on Year/day 1993/022     530.48
     Effective Irrigation                      223.40
     Precipitation                             534.70
     Drainage                                   64.79
     Runoff                                     17.53
     Soil Evaporation                          183.87
     Transpiration                             452.27
     Potential ET                              743.89

     Final Balance                             0.0000

