*SIMULATION OVERVIEW FILE

*DSSAT Cropping System Model Ver. 4.0.2.000               Aug 23, 2016; 20:22:27
                                                                                
*RUN   1        : UYSB                                                          
 MODEL          : CRGRO040 - SOYBEAN                                            
 EXPERIMENT     : UYSB0397 SN late to create DSS                                
 TREATMENT  1   : UYSB                                                          
                                                                                
 CROP           : SOYBEAN        CULTIVAR : GM 4 UY          ECOTYPE :SB0401    
 STARTING DATE  : AUG 20 1999                                                   
 PLANTING DATE  : AUG 23 1999    PLANTS/m2 :  7.0     ROW SPACING :  15.cm      
 WEATHER        : UYTA   1999                                                   
 SOIL           : UYSS0N2002     TEXTURE :       -  N20-02    SNIA CLAY RISS    
 SOIL INITIAL C : DEPTH:125cm EXTR. H2O:186.3mm  NO3: 30.1kg/ha  NH4: 23.9kg/ha 
 WATER BALANCE  : RAINFED                                                       
 IRRIGATION     : NOT IRRIGATED                                                 
 NITROGEN BAL.  : SOIL-N, N-UPTAKE & DYNAMIC N-FIXATION SIMULATION              
 N-FERTILIZER   :        1 kg/ha IN     1 APPLICATIONS                          
 RESIDUE/MANURE : INITIAL :     0 kg/ha ;       0 kg/ha IN     0 APPLICATIONS   
 ENVIRONM. OPT. : DAYL=    0.00  SRAD=    0.00  TMAX=    0.00  TMIN=    0.00    
                  RAIN=    0.00  CO2 = R330.00  DEW =    0.00  WIND=    0.00    
 SIMULATION OPT : WATER   :Y  NITROGEN:Y  N-FIX:Y  PHOSPH :N  PESTS  :N         
                  PHOTO   :C  ET      :R  INFIL:S  HYDROL :R  SOM    :G         
 MANAGEMENT OPT : PLANTING:R  IRRIG   :N  FERT :D  RESIDUE:N  HARVEST:M  WTH:M  
                                                                                
*SUMMARY OF SOIL AND GENETIC INPUT PARAMETERS                                   
                                                                                
   SOIL LOWER UPPER   SAT  EXTR  INIT   ROOT   BULK     pH    NO3    NH4    ORG 
  DEPTH LIMIT LIMIT    SW    SW    SW   DIST   DENS                          C  
   cm   cm3/cm3    cm3/cm3    cm3/cm3         g/cm3         ugN/g  ugN/g     %  
------------------------------------------------------------------------------- 
  0-  5 0.331 0.542 0.585 0.211 0.394   1.00   1.11   6.50   5.00   1.50   2.74 
  5- 15 0.331 0.542 0.585 0.211 0.394   1.00   1.11   6.50   5.00   1.50   2.74 
 15- 30 0.331 0.542 0.585 0.211 0.394   1.00   1.11   6.50   5.00   1.50   2.74 
 30- 45 0.290 0.438 0.491 0.148 0.334   0.43   1.26   6.50   4.60   1.50   1.07 
 45- 60 0.292 0.431 0.480 0.138 0.375   0.39   1.29   6.27   2.45   1.50   0.90 
 60- 90 0.293 0.419 0.466 0.126 0.419   0.32   1.34   6.00   0.00   1.50   0.64 
 90-108 0.286 0.408 0.460 0.122 0.408   0.23   1.36   6.00   0.00   1.50   0.35 
108-125 0.276 0.395 0.456 0.119 0.395   0.12   1.38   6.00   0.00   1.50   0.14 
                                                                                
TOT-125  37.3  55.9  62.1  18.6  49.1  <--cm   -  kg/ha-->   30.1   23.9 166127 
SOIL ALBEDO    : 0.09      EVAPORATION LIMIT : 6.00         MIN. FACTOR  : 1.00 
RUNOFF CURVE # :10.00      DRAINAGE RATE     : 0.40         FERT. FACTOR : 1.00 
                                                                                
 SOYBEAN    CULTIVAR :UY0141-GM 4 UY            ECOTYPE :SB0401                 
 CSDVAR :13.39  PPSEN  : 0.29  EMG-FLW:21.50  FLW-FSD:18.00  FSD-PHM : 32.00    
 WTPSD  :0.190  SDPDVR : 2.20  SDFDUR :23.00  PODDUR :10.00  XFRUIT  :  1.00    
                                                                                
                                                                                
                                                                                
                                                                                
*SIMULATED CROP AND SOIL STATUS AT MAIN DEVELOPMENT STAGES

 RUN NO.     1     UYSB                    

        CROP GROWTH   BIOMASS         LEAF   CROP N     STRESS  
   DATE  AGE STAGE      kg/ha    LAI   NUM  kg/ha  %   H2O    N 
 ------  --- ---------- -----  -----  ----  ---  ---  ----  ----
 20 AUG    0 Start Sim      0   0.00   0.0    0  0.0  0.00  0.00
 23 AUG    0 Sowing         0   0.00   0.0    0  0.0  0.00  0.00
  3 SEP   11 Emergence      4   0.01   0.0    0  5.1  0.00  0.00
  3 SEP   11 End Juven.     4   0.01   0.0    0  5.1  0.00  0.00
 19 SEP   27 Unifoliate    10   0.01   1.1    0  4.9  0.00  0.00
 20 SEP   28 Flower Ind    11   0.02   1.2    1  4.9  0.00  0.00
  2 NOV   71 First Flwr   439   0.69   7.4   19  4.3  0.00  0.00
 17 NOV   86 First Pod   1680   1.66   9.8   66  3.9  0.00  0.00
  8 DEC  107 First Seed  4549   2.39  13.9  144  3.2  0.03  0.00
 22 DEC  121 End Pod     4644   1.74  15.2  127  2.7  0.58  0.00
 29 DEC  128 End Leaf    3908   1.19  15.3  105  2.7  0.79  0.00
 30 DEC  129 End Msnode  3839   1.12  15.3  103  2.7  0.56  0.00
 12 JAN  142 Phys. Mat   3643   1.02  15.3  100  2.7  0.91  0.00
 24 JAN  154 Harv. Mat   2864   0.07  15.3   81  2.8  0.12  0.00
 24 JAN  154 Harvest     2864   0.07  15.3   81  2.8  0.00  0.00


*MAIN GROWTH AND DEVELOPMENT VARIABLES

@     VARIABLE                          SIMULATED     MEASURED
      --------                          ---------     --------
      Anthesis day (dap)                       71          -99
      First pod day (dap)                      86          -99
      First seed day (dap)                    107          -99
      Physiological maturity day (dap)        142          -99
      Yield at harvest maturity (kg [dm]/     806          -99
      Pod/Ear/Panicle weight at maturity     1611          -99
      Number at maturity (no/m2)              967          -99
      Unit wt at maturity (g [dm]/unit)    0.0834          -99
      Number at maturity (no/unit)           2.20          -99
      Tops weight at maturity (kg [dm]/ha    2864          -99
      By-product produced (stalk) at matu    2060          -99
      Leaf area index, maximum               2.40          -99
      Harvest index at maturity             0.281          -99
      Threshing % at maturity               50.03          -99
      Grain N at maturity (kg/ha)              51          -99
      Tops N at maturity (kg/ha)               81          -99
      Stem N at maturity (kg/ha)               12          -99
      Grain N at maturity (%)                6.36          -99
      Tops weight at anthesis (kg [dm]/ha     439          -99
      Tops N at anthesis (kg/ha)               19          -99
      Leaf number per stem at maturity      15.34          -99
      Grain oil at maturity (%)             20.36          -99
      Canopy height (m)                      0.66          -99
      Harvest maturity day (dap)              154          -99


*ENVIRONMENTAL AND STRESS FACTORS

 |-----Development Phase------|-------------Environment--------------|---------Stress----------|
                              |--------Average-------|---Cumulative--|  (0=Min, 1=Max Stress)  |
                         Time  Temp  Temp Solar Photop         Evapo |----Water---|--Nitrogen--|
                         Span   Max   Min   Rad  [day]   Rain  Trans  Photo         Photo
                         days    øC    øC MJ/m2     hr     mm     mm  synth Growth  synth Growth
------------------------------------------------------------------------------------------------
 Emergence -First Flower   60  21.4  10.5  17.3  12.38  150.3  104.2  0.000  0.000  0.000  0.000
 First Flower-First Seed   36  25.8  12.5  24.4  13.71   45.8  153.3  0.002  0.020  0.000  0.000
 First Seed - Phys. Mat.   35  31.2  16.0  26.8  14.03   26.2   69.3  0.643  0.743  0.080  0.001
 Emergence  - Phys. Mat.  131  25.2  12.6  21.8  13.19  222.3  326.8  0.173  0.204  0.001  0.000

                   Soybean YIELD :      806 kg/ha    [Dry weight] 

************************************************************************************************

*DSSAT Cropping System Model Ver. 4.0.2.000               Aug 23, 2016; 20:22:27
                                                                                
*RUN   2        : UYSB                                                          
 MODEL          : CRGRO040 - SOYBEAN                                            
 EXPERIMENT     : UYSB0397 SN late to create DSS                                
 TREATMENT  1   : UYSB                                                          
                                                                                
 CROP           : SOYBEAN        CULTIVAR : GM 4 UY          ECOTYPE :SB0401    
 STARTING DATE  : AUG 20 1999                                                   
 PLANTING DATE  : AUG 23 1999    PLANTS/m2 :  7.0     ROW SPACING :  15.cm      
 WEATHER        : UYTA   1999                                                   
 SOIL           : UYSS0N2002     TEXTURE :       -  N20-02    SNIA CLAY RISS    
 SOIL INITIAL C : DEPTH:125cm EXTR. H2O:186.3mm  NO3: 30.1kg/ha  NH4: 23.9kg/ha 
 WATER BALANCE  : RAINFED                                                       
 IRRIGATION     : NOT IRRIGATED                                                 
 NITROGEN BAL.  : SOIL-N, N-UPTAKE & DYNAMIC N-FIXATION SIMULATION              
 N-FERTILIZER   :        1 kg/ha IN     1 APPLICATIONS                          
 RESIDUE/MANURE : INITIAL :     0 kg/ha ;       0 kg/ha IN     0 APPLICATIONS   
 ENVIRONM. OPT. : DAYL=    0.00  SRAD=    0.00  TMAX=    0.00  TMIN=    0.00    
                  RAIN=    0.00  CO2 = R330.00  DEW =    0.00  WIND=    0.00    
 SIMULATION OPT : WATER   :Y  NITROGEN:Y  N-FIX:Y  PHOSPH :N  PESTS  :N         
                  PHOTO   :C  ET      :R  INFIL:S  HYDROL :R  SOM    :G         
 MANAGEMENT OPT : PLANTING:R  IRRIG   :N  FERT :D  RESIDUE:N  HARVEST:M  WTH:M  
                                                                                
*SUMMARY OF SOIL AND GENETIC INPUT PARAMETERS                                   
                                                                                
   SOIL LOWER UPPER   SAT  EXTR  INIT   ROOT   BULK     pH    NO3    NH4    ORG 
  DEPTH LIMIT LIMIT    SW    SW    SW   DIST   DENS                          C  
   cm   cm3/cm3    cm3/cm3    cm3/cm3         g/cm3         ugN/g  ugN/g     %  
------------------------------------------------------------------------------- 
  0-  5 0.331 0.542 0.585 0.211 0.394   1.00   1.11   6.50   5.00   1.50   2.74 
  5- 15 0.331 0.542 0.585 0.211 0.394   1.00   1.11   6.50   5.00   1.50   2.74 
 15- 30 0.331 0.542 0.585 0.211 0.394   1.00   1.11   6.50   5.00   1.50   2.74 
 30- 45 0.290 0.438 0.491 0.148 0.334   0.43   1.26   6.50   4.60   1.50   1.07 
 45- 60 0.292 0.431 0.480 0.138 0.375   0.39   1.29   6.27   2.45   1.50   0.90 
 60- 90 0.293 0.419 0.466 0.126 0.419   0.32   1.34   6.00   0.00   1.50   0.64 
 90-108 0.286 0.408 0.460 0.122 0.408   0.23   1.36   6.00   0.00   1.50   0.35 
108-125 0.276 0.395 0.456 0.119 0.395   0.12   1.38   6.00   0.00   1.50   0.14 
                                                                                
TOT-125  37.3  55.9  62.1  18.6  49.1  <--cm   -  kg/ha-->   30.1   23.9 166127 
SOIL ALBEDO    : 0.09      EVAPORATION LIMIT : 6.00         MIN. FACTOR  : 1.00 
RUNOFF CURVE # :10.00      DRAINAGE RATE     : 0.40         FERT. FACTOR : 1.00 
                                                                                
 SOYBEAN    CULTIVAR :UY0141-GM 4 UY            ECOTYPE :SB0401                 
 CSDVAR :13.39  PPSEN  : 0.29  EMG-FLW:21.50  FLW-FSD:18.00  FSD-PHM : 32.00    
 WTPSD  :0.190  SDPDVR : 2.20  SDFDUR :23.00  PODDUR :10.00  XFRUIT  :  1.00    
                                                                                
                                                                                
                                                                                
                                                                                
*SIMULATED CROP AND SOIL STATUS AT MAIN DEVELOPMENT STAGES

 RUN NO.     2     UYSB                    

        CROP GROWTH   BIOMASS         LEAF   CROP N     STRESS  
   DATE  AGE STAGE      kg/ha    LAI   NUM  kg/ha  %   H2O    N 
 ------  --- ---------- -----  -----  ----  ---  ---  ----  ----
 19 AUG    0 Start Sim      0   0.00   0.0    0  0.0  0.00  0.00
 22 AUG    0 Sowing         0   0.00   0.0    0  0.0  0.00  0.00
  1 SEP   10 Emergence      4   0.01   0.0    0  5.1  0.00  0.00
  1 SEP   10 End Juven.     4   0.01   0.0    0  5.1  0.00  0.00
 20 SEP   29 Unifoliate     9   0.02   1.1    0  4.9  0.00  0.00
 21 SEP   30 Flower Ind    10   0.02   1.2    0  5.0  0.00  0.00
  2 NOV   72 First Flwr   380   0.56   7.4   16  4.3  0.00  0.00
 16 NOV   86 First Pod   1255   1.33   9.6   51  4.1  0.00  0.00
  9 DEC  109 First Seed  4176   2.10  14.0  130  3.1  0.00  0.01
 20 DEC  120 End Leaf    5535   2.03  16.3  168  3.0  0.01  0.00
 25 DEC  125 End Msnode  5942   1.96  17.3  180  3.0  0.00  0.00
 27 DEC  127 End Pod     6019   1.93  17.3  181  3.0  0.00  0.00
 27 JAN  158 Phys. Mat   7665   1.42  17.3  260  3.4  0.00  0.00
  8 FEB  170 Harv. Mat   6358   0.09  17.3  231  3.6  0.00  0.03
  8 FEB  170 Harvest     6358   0.09  17.3  231  3.6  0.00  0.00


*MAIN GROWTH AND DEVELOPMENT VARIABLES

@     VARIABLE                          SIMULATED     MEASURED
      --------                          ---------     --------
      Anthesis day (dap)                       72          -99
      First pod day (dap)                      86          -99
      First seed day (dap)                    109          -99
      Physiological maturity day (dap)        158          -99
      Yield at harvest maturity (kg [dm]/    3140          -99
      Pod/Ear/Panicle weight at maturity     4691          -99
      Number at maturity (no/m2)             2081          -99
      Unit wt at maturity (g [dm]/unit)    0.1509          -99
      Number at maturity (no/unit)           2.20          -99
      Tops weight at maturity (kg [dm]/ha    6358          -99
      By-product produced (stalk) at matu    3220          -99
      Leaf area index, maximum               2.10          -99
      Harvest index at maturity             0.494          -99
      Threshing % at maturity               66.94          -99
      Grain N at maturity (kg/ha)             195          -99
      Tops N at maturity (kg/ha)              231          -99
      Stem N at maturity (kg/ha)               12          -99
      Grain N at maturity (%)                6.20          -99
      Tops weight at anthesis (kg [dm]/ha     380          -99
      Tops N at anthesis (kg/ha)               16          -99
      Leaf number per stem at maturity      17.28          -99
      Grain oil at maturity (%)             20.29          -99
      Canopy height (m)                      0.78          -99
      Harvest maturity day (dap)              170          -99


*ENVIRONMENTAL AND STRESS FACTORS

 |-----Development Phase------|-------------Environment--------------|---------Stress----------|
                              |--------Average-------|---Cumulative--|  (0=Min, 1=Max Stress)  |
                         Time  Temp  Temp Solar Photop         Evapo |----Water---|--Nitrogen--|
                         Span   Max   Min   Rad  [day]   Rain  Trans  Photo         Photo
                         days    øC    øC MJ/m2     hr     mm     mm  synth Growth  synth Growth
------------------------------------------------------------------------------------------------
 Emergence -First Flower   62  20.6  10.5  16.3  12.38  376.7  138.2  0.000  0.000  0.000  0.000
 First Flower-First Seed   37  24.6  12.4  23.4  13.74   65.5  169.3  0.000  0.000  0.000  0.005
 First Seed - Phys. Mat.   49  28.5  16.7  24.1  13.96  280.9  263.0  0.000  0.003  0.083  0.000
 Emergence  - Phys. Mat.  148  24.2  13.0  20.7  13.24  723.1  570.5  0.000  0.001  0.008  0.001

                   Soybean YIELD :     3140 kg/ha    [Dry weight] 

************************************************************************************************

*DSSAT Cropping System Model Ver. 4.0.2.000               Aug 23, 2016; 20:22:27
                                                                                
*RUN   3        : UYSB                                                          
 MODEL          : CRGRO040 - SOYBEAN                                            
 EXPERIMENT     : UYSB0397 SN late to create DSS                                
 TREATMENT  1   : UYSB                                                          
                                                                                
 CROP           : SOYBEAN        CULTIVAR : GM 4 UY          ECOTYPE :SB0401    
 STARTING DATE  : AUG 20 1999                                                   
 PLANTING DATE  : AUG 23 1999    PLANTS/m2 :  7.0     ROW SPACING :  15.cm      
 WEATHER        : UYTA   1999                                                   
 SOIL           : UYSS0N2002     TEXTURE :       -  N20-02    SNIA CLAY RISS    
 SOIL INITIAL C : DEPTH:125cm EXTR. H2O:186.3mm  NO3: 30.1kg/ha  NH4: 23.9kg/ha 
 WATER BALANCE  : RAINFED                                                       
 IRRIGATION     : NOT IRRIGATED                                                 
 NITROGEN BAL.  : SOIL-N, N-UPTAKE & DYNAMIC N-FIXATION SIMULATION              
 N-FERTILIZER   :        1 kg/ha IN     1 APPLICATIONS                          
 RESIDUE/MANURE : INITIAL :     0 kg/ha ;       0 kg/ha IN     0 APPLICATIONS   
 ENVIRONM. OPT. : DAYL=    0.00  SRAD=    0.00  TMAX=    0.00  TMIN=    0.00    
                  RAIN=    0.00  CO2 = R330.00  DEW =    0.00  WIND=    0.00    
 SIMULATION OPT : WATER   :Y  NITROGEN:Y  N-FIX:Y  PHOSPH :N  PESTS  :N         
                  PHOTO   :C  ET      :R  INFIL:S  HYDROL :R  SOM    :G         
 MANAGEMENT OPT : PLANTING:R  IRRIG   :N  FERT :D  RESIDUE:N  HARVEST:M  WTH:M  
                                                                                
*SUMMARY OF SOIL AND GENETIC INPUT PARAMETERS                                   
                                                                                
   SOIL LOWER UPPER   SAT  EXTR  INIT   ROOT   BULK     pH    NO3    NH4    ORG 
  DEPTH LIMIT LIMIT    SW    SW    SW   DIST   DENS                          C  
   cm   cm3/cm3    cm3/cm3    cm3/cm3         g/cm3         ugN/g  ugN/g     %  
------------------------------------------------------------------------------- 
  0-  5 0.331 0.542 0.585 0.211 0.394   1.00   1.11   6.50   5.00   1.50   2.74 
  5- 15 0.331 0.542 0.585 0.211 0.394   1.00   1.11   6.50   5.00   1.50   2.74 
 15- 30 0.331 0.542 0.585 0.211 0.394   1.00   1.11   6.50   5.00   1.50   2.74 
 30- 45 0.290 0.438 0.491 0.148 0.334   0.43   1.26   6.50   4.60   1.50   1.07 
 45- 60 0.292 0.431 0.480 0.138 0.375   0.39   1.29   6.27   2.45   1.50   0.90 
 60- 90 0.293 0.419 0.466 0.126 0.419   0.32   1.34   6.00   0.00   1.50   0.64 
 90-108 0.286 0.408 0.460 0.122 0.408   0.23   1.36   6.00   0.00   1.50   0.35 
108-125 0.276 0.395 0.456 0.119 0.395   0.12   1.38   6.00   0.00   1.50   0.14 
                                                                                
TOT-125  37.3  55.9  62.1  18.6  49.1  <--cm   -  kg/ha-->   30.1   23.9 166127 
SOIL ALBEDO    : 0.09      EVAPORATION LIMIT : 6.00         MIN. FACTOR  : 1.00 
RUNOFF CURVE # :10.00      DRAINAGE RATE     : 0.40         FERT. FACTOR : 1.00 
                                                                                
 SOYBEAN    CULTIVAR :UY0141-GM 4 UY            ECOTYPE :SB0401                 
 CSDVAR :13.39  PPSEN  : 0.29  EMG-FLW:21.50  FLW-FSD:18.00  FSD-PHM : 32.00    
 WTPSD  :0.190  SDPDVR : 2.20  SDFDUR :23.00  PODDUR :10.00  XFRUIT  :  1.00    
                                                                                
                                                                                
                                                                                
                                                                                
*SIMULATED CROP AND SOIL STATUS AT MAIN DEVELOPMENT STAGES

 RUN NO.     3     UYSB                    

        CROP GROWTH   BIOMASS         LEAF   CROP N     STRESS  
   DATE  AGE STAGE      kg/ha    LAI   NUM  kg/ha  %   H2O    N 
 ------  --- ---------- -----  -----  ----  ---  ---  ----  ----
 20 AUG    0 Start Sim      0   0.00   0.0    0  0.0  0.00  0.00
 23 AUG    0 Sowing         0   0.00   0.0    0  0.0  0.00  0.00
  2 SEP   10 Emergence      4   0.01   0.1    0  5.1  0.00  0.00
  2 SEP   10 End Juven.     4   0.01   0.1    0  5.1  0.00  0.00
 22 SEP   30 Unifoliate    10   0.02   1.2    0  4.9  0.00  0.00
 22 SEP   30 Flower Ind    10   0.02   1.2    0  4.9  0.00  0.00
 28 OCT   66 First Flwr   293   0.50   7.0   13  4.3  0.00  0.00
 10 NOV   79 First Pod    999   1.19   9.3   39  3.9  0.00  0.00
  1 DEC  100 First Seed  3334   1.79  13.3  101  3.0  0.00  0.01
 14 DEC  113 End Leaf    4545   1.72  15.6  133  2.9  0.00  0.00
 18 DEC  117 End Msnode  4903   1.68  16.4  144  2.9  0.00  0.00
 20 DEC  119 End Pod     5034   1.65  16.4  148  2.9  0.00  0.00
 20 JAN  150 Phys. Mat   6549   1.18  16.4  207  3.2  0.14  0.00
  1 FEB  162 Harv. Mat   5268   0.08  16.4  180  3.4  0.19  0.00
  1 FEB  162 Harvest     5268   0.08  16.4  180  3.4  0.00  0.00


*MAIN GROWTH AND DEVELOPMENT VARIABLES

@     VARIABLE                          SIMULATED     MEASURED
      --------                          ---------     --------
      Anthesis day (dap)                       66          -99
      First pod day (dap)                      79          -99
      First seed day (dap)                    100          -99
      Physiological maturity day (dap)        150          -99
      Yield at harvest maturity (kg [dm]/    2324          -99
      Pod/Ear/Panicle weight at maturity     3805          -99
      Number at maturity (no/m2)             1804          -99
      Unit wt at maturity (g [dm]/unit)    0.1288          -99
      Number at maturity (no/unit)           2.20          -99
      Tops weight at maturity (kg [dm]/ha    5268          -99
      By-product produced (stalk) at matu    2940          -99
      Leaf area index, maximum               1.80          -99
      Harvest index at maturity             0.441          -99
      Threshing % at maturity               61.10          -99
      Grain N at maturity (kg/ha)             142          -99
      Tops N at maturity (kg/ha)              180          -99
      Stem N at maturity (kg/ha)               12          -99
      Grain N at maturity (%)                6.13          -99
      Tops weight at anthesis (kg [dm]/ha     293          -99
      Tops N at anthesis (kg/ha)               13          -99
      Leaf number per stem at maturity      16.41          -99
      Grain oil at maturity (%)             20.15          -99
      Canopy height (m)                      0.76          -99
      Harvest maturity day (dap)              162          -99


*ENVIRONMENTAL AND STRESS FACTORS

 |-----Development Phase------|-------------Environment--------------|---------Stress----------|
                              |--------Average-------|---Cumulative--|  (0=Min, 1=Max Stress)  |
                         Time  Temp  Temp Solar Photop         Evapo |----Water---|--Nitrogen--|
                         Span   Max   Min   Rad  [day]   Rain  Trans  Photo         Photo
                         days    øC    øC MJ/m2     hr     mm     mm  synth Growth  synth Growth
------------------------------------------------------------------------------------------------
 Emergence -First Flower   56  20.5  11.9  14.5  12.28  441.0  111.4  0.000  0.000  0.000  0.000
 First Flower-First Seed   34  24.4  13.9  21.4  13.59  218.0  142.3  0.000  0.000  0.000  0.007
 First Seed - Phys. Mat.   50  26.7  15.0  25.1  13.99   93.3  241.2  0.052  0.087  0.081  0.000
 Emergence  - Phys. Mat.  140  23.7  13.5  19.9  13.21  752.3  494.9  0.019  0.031  0.011  0.002

                   Soybean YIELD :     2324 kg/ha    [Dry weight] 

************************************************************************************************

*DSSAT Cropping System Model Ver. 4.0.2.000               Aug 23, 2016; 20:22:27
                                                                                
*RUN   4        : UYSB                                                          
 MODEL          : CRGRO040 - SOYBEAN                                            
 EXPERIMENT     : UYSB0397 SN late to create DSS                                
 TREATMENT  1   : UYSB                                                          
                                                                                
 CROP           : SOYBEAN        CULTIVAR : GM 4 UY          ECOTYPE :SB0401    
 STARTING DATE  : AUG 20 1999                                                   
 PLANTING DATE  : AUG 23 1999    PLANTS/m2 :  7.0     ROW SPACING :  15.cm      
 WEATHER        : UYTA   1999                                                   
 SOIL           : UYSS0N2002     TEXTURE :       -  N20-02    SNIA CLAY RISS    
 SOIL INITIAL C : DEPTH:125cm EXTR. H2O:186.3mm  NO3: 30.1kg/ha  NH4: 23.9kg/ha 
 WATER BALANCE  : RAINFED                                                       
 IRRIGATION     : NOT IRRIGATED                                                 
 NITROGEN BAL.  : SOIL-N, N-UPTAKE & DYNAMIC N-FIXATION SIMULATION              
 N-FERTILIZER   :        1 kg/ha IN     1 APPLICATIONS                          
 RESIDUE/MANURE : INITIAL :     0 kg/ha ;       0 kg/ha IN     0 APPLICATIONS   
 ENVIRONM. OPT. : DAYL=    0.00  SRAD=    0.00  TMAX=    0.00  TMIN=    0.00    
                  RAIN=    0.00  CO2 = R330.00  DEW =    0.00  WIND=    0.00    
 SIMULATION OPT : WATER   :Y  NITROGEN:Y  N-FIX:Y  PHOSPH :N  PESTS  :N         
                  PHOTO   :C  ET      :R  INFIL:S  HYDROL :R  SOM    :G         
 MANAGEMENT OPT : PLANTING:R  IRRIG   :N  FERT :D  RESIDUE:N  HARVEST:M  WTH:M  
                                                                                
*SUMMARY OF SOIL AND GENETIC INPUT PARAMETERS                                   
                                                                                
   SOIL LOWER UPPER   SAT  EXTR  INIT   ROOT   BULK     pH    NO3    NH4    ORG 
  DEPTH LIMIT LIMIT    SW    SW    SW   DIST   DENS                          C  
   cm   cm3/cm3    cm3/cm3    cm3/cm3         g/cm3         ugN/g  ugN/g     %  
------------------------------------------------------------------------------- 
  0-  5 0.331 0.542 0.585 0.211 0.394   1.00   1.11   6.50   5.00   1.50   2.74 
  5- 15 0.331 0.542 0.585 0.211 0.394   1.00   1.11   6.50   5.00   1.50   2.74 
 15- 30 0.331 0.542 0.585 0.211 0.394   1.00   1.11   6.50   5.00   1.50   2.74 
 30- 45 0.290 0.438 0.491 0.148 0.334   0.43   1.26   6.50   4.60   1.50   1.07 
 45- 60 0.292 0.431 0.480 0.138 0.375   0.39   1.29   6.27   2.45   1.50   0.90 
 60- 90 0.293 0.419 0.466 0.126 0.419   0.32   1.34   6.00   0.00   1.50   0.64 
 90-108 0.286 0.408 0.460 0.122 0.408   0.23   1.36   6.00   0.00   1.50   0.35 
108-125 0.276 0.395 0.456 0.119 0.395   0.12   1.38   6.00   0.00   1.50   0.14 
                                                                                
TOT-125  37.3  55.9  62.1  18.6  49.1  <--cm   -  kg/ha-->   30.1   23.9 166127 
SOIL ALBEDO    : 0.09      EVAPORATION LIMIT : 6.00         MIN. FACTOR  : 1.00 
RUNOFF CURVE # :10.00      DRAINAGE RATE     : 0.40         FERT. FACTOR : 1.00 
                                                                                
 SOYBEAN    CULTIVAR :UY0141-GM 4 UY            ECOTYPE :SB0401                 
 CSDVAR :13.39  PPSEN  : 0.29  EMG-FLW:21.50  FLW-FSD:18.00  FSD-PHM : 32.00    
 WTPSD  :0.190  SDPDVR : 2.20  SDFDUR :23.00  PODDUR :10.00  XFRUIT  :  1.00    
                                                                                
                                                                                
                                                                                
                                                                                
*SIMULATED CROP AND SOIL STATUS AT MAIN DEVELOPMENT STAGES

 RUN NO.     4     UYSB                    

        CROP GROWTH   BIOMASS         LEAF   CROP N     STRESS  
   DATE  AGE STAGE      kg/ha    LAI   NUM  kg/ha  %   H2O    N 
 ------  --- ---------- -----  -----  ----  ---  ---  ----  ----
 20 AUG    0 Start Sim      0   0.00   0.0    0  0.0  0.00  0.00
 23 AUG    0 Sowing         0   0.00   0.0    0  0.0  0.00  0.00
 30 AUG    7 Emergence      4   0.01   0.0    0  5.1  0.00  0.00
 30 AUG    7 End Juven.     4   0.01   0.0    0  5.1  0.00  0.00
 23 SEP   31 Unifoliate    11   0.01   1.1    1  4.9  0.00  0.00
 25 SEP   33 Flower Ind    13   0.02   1.3    1  5.0  0.00  0.00
 26 OCT   64 First Flwr   273   0.43   7.0   11  4.0  0.00  0.00
  9 NOV   78 First Pod    862   0.97   9.2   36  4.2  0.00  0.00
 27 NOV   96 First Seed  2524   1.43  13.2   75  3.0  0.00  0.04
  9 DEC  108 End Leaf    3358   1.34  15.6  101  3.0  0.00  0.00
 12 DEC  111 End Msnode  3545   1.32  16.1  108  3.0  0.00  0.00
 15 DEC  114 End Pod     3724   1.29  16.1  115  3.1  0.00  0.00
 17 JAN  147 Phys. Mat   5236   0.95  16.1  197  3.8  0.00  0.01
 29 JAN  159 Harv. Mat   4592   0.06  16.1  186  4.1  0.00  0.04
 29 JAN  159 Harvest     4592   0.06  16.1  186  4.1  0.00  0.00


*MAIN GROWTH AND DEVELOPMENT VARIABLES

@     VARIABLE                          SIMULATED     MEASURED
      --------                          ---------     --------
      Anthesis day (dap)                       64          -99
      First pod day (dap)                      78          -99
      First seed day (dap)                     96          -99
      Physiological maturity day (dap)        147          -99
      Yield at harvest maturity (kg [dm]/    2656          -99
      Pod/Ear/Panicle weight at maturity     3769          -99
      Number at maturity (no/m2)             1518          -99
      Unit wt at maturity (g [dm]/unit)    0.1750          -99
      Number at maturity (no/unit)           2.20          -99
      Tops weight at maturity (kg [dm]/ha    4592          -99
      By-product produced (stalk) at matu    1940          -99
      Leaf area index, maximum               1.43          -99
      Harvest index at maturity             0.578          -99
      Threshing % at maturity               70.47          -99
      Grain N at maturity (kg/ha)             165          -99
      Tops N at maturity (kg/ha)              186          -99
      Stem N at maturity (kg/ha)                5          -99
      Grain N at maturity (%)                6.22          -99
      Tops weight at anthesis (kg [dm]/ha     273          -99
      Tops N at anthesis (kg/ha)               11          -99
      Leaf number per stem at maturity      16.14          -99
      Grain oil at maturity (%)             20.31          -99
      Canopy height (m)                      0.80          -99
      Harvest maturity day (dap)              159          -99


*ENVIRONMENTAL AND STRESS FACTORS

 |-----Development Phase------|-------------Environment--------------|---------Stress----------|
                              |--------Average-------|---Cumulative--|  (0=Min, 1=Max Stress)  |
                         Time  Temp  Temp Solar Photop         Evapo |----Water---|--Nitrogen--|
                         Span   Max   Min   Rad  [day]   Rain  Trans  Photo         Photo
                         days    øC    øC MJ/m2     hr     mm     mm  synth Growth  synth Growth
------------------------------------------------------------------------------------------------
 Emergence -First Flower   57  20.9  10.9  16.0  12.20  546.2  125.2  0.000  0.000  0.000  0.000
 First Flower-First Seed   32  24.7  14.8  20.0  13.52  339.2  128.4  0.000  0.000  0.000  0.023
 First Seed - Phys. Mat.   51  26.9  16.9  21.6  14.00  317.1  216.7  0.000  0.000  0.124  0.007
 Emergence  - Phys. Mat.  140  24.0  14.0  18.9  13.16   1203    470  0.000  0.000  0.027  0.008

                   Soybean YIELD :     2656 kg/ha    [Dry weight] 

************************************************************************************************

*DSSAT Cropping System Model Ver. 4.0.2.000               Aug 23, 2016; 20:22:27
                                                                                
*RUN   5        : UYSB                                                          
 MODEL          : CRGRO040 - SOYBEAN                                            
 EXPERIMENT     : UYSB0397 SN late to create DSS                                
 TREATMENT  1   : UYSB                                                          
                                                                                
 CROP           : SOYBEAN        CULTIVAR : GM 4 UY          ECOTYPE :SB0401    
 STARTING DATE  : AUG 20 1999                                                   
 PLANTING DATE  : AUG 23 1999    PLANTS/m2 :  7.0     ROW SPACING :  15.cm      
 WEATHER        : UYTA   1999                                                   
 SOIL           : UYSS0N2002     TEXTURE :       -  N20-02    SNIA CLAY RISS    
 SOIL INITIAL C : DEPTH:125cm EXTR. H2O:186.3mm  NO3: 30.1kg/ha  NH4: 23.9kg/ha 
 WATER BALANCE  : RAINFED                                                       
 IRRIGATION     : NOT IRRIGATED                                                 
 NITROGEN BAL.  : SOIL-N, N-UPTAKE & DYNAMIC N-FIXATION SIMULATION              
 N-FERTILIZER   :        1 kg/ha IN     1 APPLICATIONS                          
 RESIDUE/MANURE : INITIAL :     0 kg/ha ;       0 kg/ha IN     0 APPLICATIONS   
 ENVIRONM. OPT. : DAYL=    0.00  SRAD=    0.00  TMAX=    0.00  TMIN=    0.00    
                  RAIN=    0.00  CO2 = R330.00  DEW =    0.00  WIND=    0.00    
 SIMULATION OPT : WATER   :Y  NITROGEN:Y  N-FIX:Y  PHOSPH :N  PESTS  :N         
                  PHOTO   :C  ET      :R  INFIL:S  HYDROL :R  SOM    :G         
 MANAGEMENT OPT : PLANTING:R  IRRIG   :N  FERT :D  RESIDUE:N  HARVEST:M  WTH:M  
                                                                                
*SUMMARY OF SOIL AND GENETIC INPUT PARAMETERS                                   
                                                                                
   SOIL LOWER UPPER   SAT  EXTR  INIT   ROOT   BULK     pH    NO3    NH4    ORG 
  DEPTH LIMIT LIMIT    SW    SW    SW   DIST   DENS                          C  
   cm   cm3/cm3    cm3/cm3    cm3/cm3         g/cm3         ugN/g  ugN/g     %  
------------------------------------------------------------------------------- 
  0-  5 0.331 0.542 0.585 0.211 0.394   1.00   1.11   6.50   5.00   1.50   2.74 
  5- 15 0.331 0.542 0.585 0.211 0.394   1.00   1.11   6.50   5.00   1.50   2.74 
 15- 30 0.331 0.542 0.585 0.211 0.394   1.00   1.11   6.50   5.00   1.50   2.74 
 30- 45 0.290 0.438 0.491 0.148 0.334   0.43   1.26   6.50   4.60   1.50   1.07 
 45- 60 0.292 0.431 0.480 0.138 0.375   0.39   1.29   6.27   2.45   1.50   0.90 
 60- 90 0.293 0.419 0.466 0.126 0.419   0.32   1.34   6.00   0.00   1.50   0.64 
 90-108 0.286 0.408 0.460 0.122 0.408   0.23   1.36   6.00   0.00   1.50   0.35 
108-125 0.276 0.395 0.456 0.119 0.395   0.12   1.38   6.00   0.00   1.50   0.14 
                                                                                
TOT-125  37.3  55.9  62.1  18.6  49.1  <--cm   -  kg/ha-->   30.1   23.9 166127 
SOIL ALBEDO    : 0.09      EVAPORATION LIMIT : 6.00         MIN. FACTOR  : 1.00 
RUNOFF CURVE # :10.00      DRAINAGE RATE     : 0.40         FERT. FACTOR : 1.00 
                                                                                
 SOYBEAN    CULTIVAR :UY0141-GM 4 UY            ECOTYPE :SB0401                 
 CSDVAR :13.39  PPSEN  : 0.29  EMG-FLW:21.50  FLW-FSD:18.00  FSD-PHM : 32.00    
 WTPSD  :0.190  SDPDVR : 2.20  SDFDUR :23.00  PODDUR :10.00  XFRUIT  :  1.00    
                                                                                
                                                                                
                                                                                
                                                                                
*SIMULATED CROP AND SOIL STATUS AT MAIN DEVELOPMENT STAGES

 RUN NO.     5     UYSB                    

        CROP GROWTH   BIOMASS         LEAF   CROP N     STRESS  
   DATE  AGE STAGE      kg/ha    LAI   NUM  kg/ha  %   H2O    N 
 ------  --- ---------- -----  -----  ----  ---  ---  ----  ----
 20 AUG    0 Start Sim      0   0.00   0.0    0  0.0  0.00  0.00
 23 AUG    0 Sowing         0   0.00   0.0    0  0.0  0.00  0.00
  6 SEP   14 Emergence      4   0.01   0.0    0  5.2  0.00  0.00
  6 SEP   14 End Juven.     4   0.01   0.0    0  5.2  0.00  0.00
 26 SEP   34 Unifoliate     9   0.01   1.1    0  4.9  0.00  0.00
 26 SEP   34 Flower Ind     9   0.01   1.1    0  4.9  0.00  0.00
  7 NOV   76 First Flwr   563   0.69   7.5   24  4.3  0.00  0.00
 20 NOV   89 First Pod   1536   1.63  10.0   62  4.0  0.00  0.00
 11 DEC  110 First Seed  4409   2.24  14.3  128  2.9  0.00  0.08
 24 DEC  123 End Leaf    5701   2.14  16.7  167  2.9  0.00  0.00
 28 DEC  127 End Msnode  5935   2.08  17.5  175  2.9  0.00  0.00
 30 DEC  129 End Pod     6122   2.05  17.5  181  3.0  0.00  0.00
 28 JAN  158 Phys. Mat   7527   1.50  17.5  245  3.3  0.13  0.00
  9 FEB  170 Harv. Mat   6145   0.10  17.5  217  3.5  0.17  0.00
  9 FEB  170 Harvest     6145   0.10  17.5  217  3.5  0.00  0.00


*MAIN GROWTH AND DEVELOPMENT VARIABLES

@     VARIABLE                          SIMULATED     MEASURED
      --------                          ---------     --------
      Anthesis day (dap)                       76          -99
      First pod day (dap)                      89          -99
      First seed day (dap)                    110          -99
      Physiological maturity day (dap)        158          -99
      Yield at harvest maturity (kg [dm]/    2879          -99
      Pod/Ear/Panicle weight at maturity     4589          -99
      Number at maturity (no/m2)             2105          -99
      Unit wt at maturity (g [dm]/unit)    0.1368          -99
      Number at maturity (no/unit)           2.20          -99
      Tops weight at maturity (kg [dm]/ha    6145          -99
      By-product produced (stalk) at matu    3270          -99
      Leaf area index, maximum               2.24          -99
      Harvest index at maturity             0.469          -99
      Threshing % at maturity               62.74          -99
      Grain N at maturity (kg/ha)             178          -99
      Tops N at maturity (kg/ha)              217          -99
      Stem N at maturity (kg/ha)               12          -99
      Grain N at maturity (%)                6.19          -99
      Tops weight at anthesis (kg [dm]/ha     563          -99
      Tops N at anthesis (kg/ha)               24          -99
      Leaf number per stem at maturity      17.51          -99
      Grain oil at maturity (%)             20.51          -99
      Canopy height (m)                      0.81          -99
      Harvest maturity day (dap)              170          -99


*ENVIRONMENTAL AND STRESS FACTORS

 |-----Development Phase------|-------------Environment--------------|---------Stress----------|
                              |--------Average-------|---Cumulative--|  (0=Min, 1=Max Stress)  |
                         Time  Temp  Temp Solar Photop         Evapo |----Water---|--Nitrogen--|
                         Span   Max   Min   Rad  [day]   Rain  Trans  Photo         Photo
                         days    øC    øC MJ/m2     hr     mm     mm  synth Growth  synth Growth
------------------------------------------------------------------------------------------------
 Emergence -First Flower   62  22.0   9.8  19.3  12.50  187.0  126.7  0.000  0.000  0.000  0.000
 First Flower-First Seed   34  26.2  14.1  22.8  13.79  221.6  164.9  0.000  0.000  0.000  0.046
 First Seed - Phys. Mat.   48  27.7  15.6  24.3  13.95  122.9  233.4  0.042  0.080  0.071  0.000
 Emergence  - Phys. Mat.  144  24.9  12.8  21.8  13.29  531.5  524.9  0.014  0.027  0.005  0.011

                   Soybean YIELD :     2879 kg/ha    [Dry weight] 

************************************************************************************************

*DSSAT Cropping System Model Ver. 4.0.2.000               Aug 23, 2016; 20:22:27
                                                                                
*RUN   6        : UYSB                                                          
 MODEL          : CRGRO040 - SOYBEAN                                            
 EXPERIMENT     : UYSB0397 SN late to create DSS                                
 TREATMENT  1   : UYSB                                                          
                                                                                
 CROP           : SOYBEAN        CULTIVAR : GM 4 UY          ECOTYPE :SB0401    
 STARTING DATE  : AUG 20 1999                                                   
 PLANTING DATE  : AUG 23 1999    PLANTS/m2 :  7.0     ROW SPACING :  15.cm      
 WEATHER        : UYTA   1999                                                   
 SOIL           : UYSS0N2002     TEXTURE :       -  N20-02    SNIA CLAY RISS    
 SOIL INITIAL C : DEPTH:125cm EXTR. H2O:186.3mm  NO3: 30.1kg/ha  NH4: 23.9kg/ha 
 WATER BALANCE  : RAINFED                                                       
 IRRIGATION     : NOT IRRIGATED                                                 
 NITROGEN BAL.  : SOIL-N, N-UPTAKE & DYNAMIC N-FIXATION SIMULATION              
 N-FERTILIZER   :        1 kg/ha IN     1 APPLICATIONS                          
 RESIDUE/MANURE : INITIAL :     0 kg/ha ;       0 kg/ha IN     0 APPLICATIONS   
 ENVIRONM. OPT. : DAYL=    0.00  SRAD=    0.00  TMAX=    0.00  TMIN=    0.00    
                  RAIN=    0.00  CO2 = R330.00  DEW =    0.00  WIND=    0.00    
 SIMULATION OPT : WATER   :Y  NITROGEN:Y  N-FIX:Y  PHOSPH :N  PESTS  :N         
                  PHOTO   :C  ET      :R  INFIL:S  HYDROL :R  SOM    :G         
 MANAGEMENT OPT : PLANTING:R  IRRIG   :N  FERT :D  RESIDUE:N  HARVEST:M  WTH:M  
                                                                                
*SUMMARY OF SOIL AND GENETIC INPUT PARAMETERS                                   
                                                                                
   SOIL LOWER UPPER   SAT  EXTR  INIT   ROOT   BULK     pH    NO3    NH4    ORG 
  DEPTH LIMIT LIMIT    SW    SW    SW   DIST   DENS                          C  
   cm   cm3/cm3    cm3/cm3    cm3/cm3         g/cm3         ugN/g  ugN/g     %  
------------------------------------------------------------------------------- 
  0-  5 0.331 0.542 0.585 0.211 0.394   1.00   1.11   6.50   5.00   1.50   2.74 
  5- 15 0.331 0.542 0.585 0.211 0.394   1.00   1.11   6.50   5.00   1.50   2.74 
 15- 30 0.331 0.542 0.585 0.211 0.394   1.00   1.11   6.50   5.00   1.50   2.74 
 30- 45 0.290 0.438 0.491 0.148 0.334   0.43   1.26   6.50   4.60   1.50   1.07 
 45- 60 0.292 0.431 0.480 0.138 0.375   0.39   1.29   6.27   2.45   1.50   0.90 
 60- 90 0.293 0.419 0.466 0.126 0.419   0.32   1.34   6.00   0.00   1.50   0.64 
 90-108 0.286 0.408 0.460 0.122 0.408   0.23   1.36   6.00   0.00   1.50   0.35 
108-125 0.276 0.395 0.456 0.119 0.395   0.12   1.38   6.00   0.00   1.50   0.14 
                                                                                
TOT-125  37.3  55.9  62.1  18.6  49.1  <--cm   -  kg/ha-->   30.1   23.9 166127 
SOIL ALBEDO    : 0.09      EVAPORATION LIMIT : 6.00         MIN. FACTOR  : 1.00 
RUNOFF CURVE # :10.00      DRAINAGE RATE     : 0.40         FERT. FACTOR : 1.00 
                                                                                
 SOYBEAN    CULTIVAR :UY0141-GM 4 UY            ECOTYPE :SB0401                 
 CSDVAR :13.39  PPSEN  : 0.29  EMG-FLW:21.50  FLW-FSD:18.00  FSD-PHM : 32.00    
 WTPSD  :0.190  SDPDVR : 2.20  SDFDUR :23.00  PODDUR :10.00  XFRUIT  :  1.00    
                                                                                
                                                                                
                                                                                
                                                                                
*SIMULATED CROP AND SOIL STATUS AT MAIN DEVELOPMENT STAGES

 RUN NO.     6     UYSB                    

        CROP GROWTH   BIOMASS         LEAF   CROP N     STRESS  
   DATE  AGE STAGE      kg/ha    LAI   NUM  kg/ha  %   H2O    N 
 ------  --- ---------- -----  -----  ----  ---  ---  ----  ----
 19 AUG    0 Start Sim      0   0.00   0.0    0  0.0  0.00  0.00
 22 AUG    0 Sowing         0   0.00   0.0    0  0.0  0.00  0.00
  3 SEP   12 Emergence      4   0.01   0.0    0  5.1  0.00  0.00
  3 SEP   12 End Juven.     4   0.01   0.0    0  5.1  0.00  0.00
 20 SEP   29 Unifoliate     8   0.01   1.1    0  5.0  0.09  0.00
 21 SEP   30 Flower Ind     8   0.01   1.2    0  5.1  0.00  0.00
 11 NOV   81 First Flwr   632   0.84   8.0   27  4.3  0.00  0.00
 26 NOV   96 First Pod   1966   2.03  10.7   78  4.0  0.00  0.00
 16 DEC  116 First Seed  5069   2.80  15.2  158  3.1  0.00  0.03
 29 DEC  129 End Leaf    6491   2.57  17.1  189  2.9  0.24  0.00
  1 JAN  132 End Pod     6257   2.37  17.3  179  2.9  0.77  0.00
  3 JAN  134 End Msnode  6050   2.24  17.4  173  2.9  0.76  0.00
 24 JAN  155 Phys. Mat   5828   1.26  17.4  170  2.9  0.50  0.00
  5 FEB  167 Harv. Mat   4698   0.08  17.4  146  3.1  0.39  0.00
  5 FEB  167 Harvest     4698   0.08  17.4  146  3.1  0.00  0.00


*MAIN GROWTH AND DEVELOPMENT VARIABLES

@     VARIABLE                          SIMULATED     MEASURED
      --------                          ---------     --------
      Anthesis day (dap)                       81          -99
      First pod day (dap)                      96          -99
      First seed day (dap)                    116          -99
      Physiological maturity day (dap)        155          -99
      Yield at harvest maturity (kg [dm]/    1636          -99
      Pod/Ear/Panicle weight at maturity     3011          -99
      Number at maturity (no/m2)             2005          -99
      Unit wt at maturity (g [dm]/unit)    0.0816          -99
      Number at maturity (no/unit)           2.20          -99
      Tops weight at maturity (kg [dm]/ha    4698          -99
      By-product produced (stalk) at matu    3060          -99
      Leaf area index, maximum               2.80          -99
      Harvest index at maturity             0.348          -99
      Threshing % at maturity               54.32          -99
      Grain N at maturity (kg/ha)             104          -99
      Tops N at maturity (kg/ha)              146          -99
      Stem N at maturity (kg/ha)               15          -99
      Grain N at maturity (%)                6.35          -99
      Tops weight at anthesis (kg [dm]/ha     632          -99
      Tops N at anthesis (kg/ha)               27          -99
      Leaf number per stem at maturity      17.36          -99
      Grain oil at maturity (%)             20.39          -99
      Canopy height (m)                      0.75          -99
      Harvest maturity day (dap)              167          -99


*ENVIRONMENTAL AND STRESS FACTORS

 |-----Development Phase------|-------------Environment--------------|---------Stress----------|
                              |--------Average-------|---Cumulative--|  (0=Min, 1=Max Stress)  |
                         Time  Temp  Temp Solar Photop         Evapo |----Water---|--Nitrogen--|
                         Span   Max   Min   Rad  [day]   Rain  Trans  Photo         Photo
                         days    øC    øC MJ/m2     hr     mm     mm  synth Growth  synth Growth
------------------------------------------------------------------------------------------------
 Emergence -First Flower   69  21.7   9.4  18.1  12.55  265.0  135.7  0.013  0.023  0.000  0.000
 First Flower-First Seed   35  26.3  14.4  23.6  13.88   75.9  173.8  0.000  0.000  0.000  0.019
 First Seed - Phys. Mat.   39  30.2  15.9  27.1  13.96   87.4  156.5  0.348  0.448  0.094  0.001
 Emergence  - Phys. Mat.  143  25.1  12.4  21.9  13.26  428.3  466.0  0.101  0.134  0.005  0.005

                   Soybean YIELD :     1636 kg/ha    [Dry weight] 

************************************************************************************************

*DSSAT Cropping System Model Ver. 4.0.2.000               Aug 23, 2016; 20:22:27
                                                                                
*RUN   7        : UYSB                                                          
 MODEL          : CRGRO040 - SOYBEAN                                            
 EXPERIMENT     : UYSB0397 SN late to create DSS                                
 TREATMENT  1   : UYSB                                                          
                                                                                
 CROP           : SOYBEAN        CULTIVAR : GM 4 UY          ECOTYPE :SB0401    
 STARTING DATE  : AUG 20 1999                                                   
 PLANTING DATE  : AUG 23 1999    PLANTS/m2 :  7.0     ROW SPACING :  15.cm      
 WEATHER        : UYTA   1999                                                   
 SOIL           : UYSS0N2002     TEXTURE :       -  N20-02    SNIA CLAY RISS    
 SOIL INITIAL C : DEPTH:125cm EXTR. H2O:186.3mm  NO3: 30.1kg/ha  NH4: 23.9kg/ha 
 WATER BALANCE  : RAINFED                                                       
 IRRIGATION     : NOT IRRIGATED                                                 
 NITROGEN BAL.  : SOIL-N, N-UPTAKE & DYNAMIC N-FIXATION SIMULATION              
 N-FERTILIZER   :        1 kg/ha IN     1 APPLICATIONS                          
 RESIDUE/MANURE : INITIAL :     0 kg/ha ;       0 kg/ha IN     0 APPLICATIONS   
 ENVIRONM. OPT. : DAYL=    0.00  SRAD=    0.00  TMAX=    0.00  TMIN=    0.00    
                  RAIN=    0.00  CO2 = R330.00  DEW =    0.00  WIND=    0.00    
 SIMULATION OPT : WATER   :Y  NITROGEN:Y  N-FIX:Y  PHOSPH :N  PESTS  :N         
                  PHOTO   :C  ET      :R  INFIL:S  HYDROL :R  SOM    :G         
 MANAGEMENT OPT : PLANTING:R  IRRIG   :N  FERT :D  RESIDUE:N  HARVEST:M  WTH:M  
                                                                                
*SUMMARY OF SOIL AND GENETIC INPUT PARAMETERS                                   
                                                                                
   SOIL LOWER UPPER   SAT  EXTR  INIT   ROOT   BULK     pH    NO3    NH4    ORG 
  DEPTH LIMIT LIMIT    SW    SW    SW   DIST   DENS                          C  
   cm   cm3/cm3    cm3/cm3    cm3/cm3         g/cm3         ugN/g  ugN/g     %  
------------------------------------------------------------------------------- 
  0-  5 0.331 0.542 0.585 0.211 0.394   1.00   1.11   6.50   5.00   1.50   2.74 
  5- 15 0.331 0.542 0.585 0.211 0.394   1.00   1.11   6.50   5.00   1.50   2.74 
 15- 30 0.331 0.542 0.585 0.211 0.394   1.00   1.11   6.50   5.00   1.50   2.74 
 30- 45 0.290 0.438 0.491 0.148 0.334   0.43   1.26   6.50   4.60   1.50   1.07 
 45- 60 0.292 0.431 0.480 0.138 0.375   0.39   1.29   6.27   2.45   1.50   0.90 
 60- 90 0.293 0.419 0.466 0.126 0.419   0.32   1.34   6.00   0.00   1.50   0.64 
 90-108 0.286 0.408 0.460 0.122 0.408   0.23   1.36   6.00   0.00   1.50   0.35 
108-125 0.276 0.395 0.456 0.119 0.395   0.12   1.38   6.00   0.00   1.50   0.14 
                                                                                
TOT-125  37.3  55.9  62.1  18.6  49.1  <--cm   -  kg/ha-->   30.1   23.9 166127 
SOIL ALBEDO    : 0.09      EVAPORATION LIMIT : 6.00         MIN. FACTOR  : 1.00 
RUNOFF CURVE # :10.00      DRAINAGE RATE     : 0.40         FERT. FACTOR : 1.00 
                                                                                
 SOYBEAN    CULTIVAR :UY0141-GM 4 UY            ECOTYPE :SB0401                 
 CSDVAR :13.39  PPSEN  : 0.29  EMG-FLW:21.50  FLW-FSD:18.00  FSD-PHM : 32.00    
 WTPSD  :0.190  SDPDVR : 2.20  SDFDUR :23.00  PODDUR :10.00  XFRUIT  :  1.00    
                                                                                
                                                                                
                                                                                
                                                                                
*SIMULATED CROP AND SOIL STATUS AT MAIN DEVELOPMENT STAGES

 RUN NO.     7     UYSB                    

        CROP GROWTH   BIOMASS         LEAF   CROP N     STRESS  
   DATE  AGE STAGE      kg/ha    LAI   NUM  kg/ha  %   H2O    N 
 ------  --- ---------- -----  -----  ----  ---  ---  ----  ----
 20 AUG    0 Start Sim      0   0.00   0.0    0  0.0  0.00  0.00
 23 AUG    0 Sowing         0   0.00   0.0    0  0.0  0.00  0.00
  6 SEP   14 Emergence      4   0.01   0.0    0  5.1  0.00  0.00
  6 SEP   14 End Juven.     4   0.01   0.0    0  5.1  0.00  0.00
 27 SEP   35 Unifoliate    10   0.01   1.1    0  4.9  0.00  0.00
 27 SEP   35 Flower Ind    10   0.01   1.1    0  4.9  0.00  0.00
 15 NOV   84 First Flwr   698   0.83   7.9   30  4.3  0.00  0.00
 26 NOV   95 First Pod   1861   1.92  10.4   69  3.7  0.00  0.00
 19 DEC  118 First Seed  5283   2.80  15.0  166  3.1  0.00  0.00
  2 JAN  132 End Pod     5239   1.98  16.2  145  2.8  0.60  0.00
  8 JAN  138 End Leaf    4572   1.54  16.3  125  2.7  0.87  0.00
  9 JAN  139 End Msnode  4458   1.46  16.3  122  2.7  0.87  0.00
 27 JAN  157 Phys. Mat   5194   1.02  16.3  149  2.9  0.13  0.02
  8 FEB  169 Harv. Mat   4265   0.07  16.3  131  3.1  0.40  0.00
  8 FEB  169 Harvest     4265   0.07  16.3  131  3.1  0.00  0.00


*MAIN GROWTH AND DEVELOPMENT VARIABLES

@     VARIABLE                          SIMULATED     MEASURED
      --------                          ---------     --------
      Anthesis day (dap)                       84          -99
      First pod day (dap)                      95          -99
      First seed day (dap)                    118          -99
      Physiological maturity day (dap)        157          -99
      Yield at harvest maturity (kg [dm]/    1809          -99
      Pod/Ear/Panicle weight at maturity     2657          -99
      Number at maturity (no/m2)             1139          -99
      Unit wt at maturity (g [dm]/unit)    0.1589          -99
      Number at maturity (no/unit)           2.20          -99
      Tops weight at maturity (kg [dm]/ha    4265          -99
      By-product produced (stalk) at matu    2460          -99
      Leaf area index, maximum               2.80          -99
      Harvest index at maturity             0.424          -99
      Threshing % at maturity               68.08          -99
      Grain N at maturity (kg/ha)             106          -99
      Tops N at maturity (kg/ha)              131          -99
      Stem N at maturity (kg/ha)               12          -99
      Grain N at maturity (%)                5.88          -99
      Tops weight at anthesis (kg [dm]/ha     698          -99
      Tops N at anthesis (kg/ha)               30          -99
      Leaf number per stem at maturity      16.34          -99
      Grain oil at maturity (%)             21.28          -99
      Canopy height (m)                      0.71          -99
      Harvest maturity day (dap)              169          -99


*ENVIRONMENTAL AND STRESS FACTORS

 |-----Development Phase------|-------------Environment--------------|---------Stress----------|
                              |--------Average-------|---Cumulative--|  (0=Min, 1=Max Stress)  |
                         Time  Temp  Temp Solar Photop         Evapo |----Water---|--Nitrogen--|
                         Span   Max   Min   Rad  [day]   Rain  Trans  Photo         Photo
                         days    øC    øC MJ/m2     hr     mm     mm  synth Growth  synth Growth
------------------------------------------------------------------------------------------------
 Emergence -First Flower   70  20.3   9.9  18.9  12.62  354.9  150.9  0.000  0.000  0.000  0.000
 First Flower-First Seed   34  27.7  14.3  25.1  13.91   73.4  169.9  0.000  0.001  0.000  0.000
 First Seed - Phys. Mat.   39  30.3  17.3  24.5  13.93   95.1  129.7  0.336  0.432  0.102  0.009
 Emergence  - Phys. Mat.  143  24.8  13.0  21.9  13.29  523.4  450.6  0.092  0.118  0.008  0.002

                   Soybean YIELD :     1809 kg/ha    [Dry weight] 

************************************************************************************************

*DSSAT Cropping System Model Ver. 4.0.2.000               Aug 23, 2016; 20:22:27
                                                                                
*RUN   8        : UYSB                                                          
 MODEL          : CRGRO040 - SOYBEAN                                            
 EXPERIMENT     : UYSB0397 SN late to create DSS                                
 TREATMENT  1   : UYSB                                                          
                                                                                
 CROP           : SOYBEAN        CULTIVAR : GM 4 UY          ECOTYPE :SB0401    
 STARTING DATE  : AUG 20 1999                                                   
 PLANTING DATE  : AUG 23 1999    PLANTS/m2 :  7.0     ROW SPACING :  15.cm      
 WEATHER        : UYTA   1999                                                   
 SOIL           : UYSS0N2002     TEXTURE :       -  N20-02    SNIA CLAY RISS    
 SOIL INITIAL C : DEPTH:125cm EXTR. H2O:186.3mm  NO3: 30.1kg/ha  NH4: 23.9kg/ha 
 WATER BALANCE  : RAINFED                                                       
 IRRIGATION     : NOT IRRIGATED                                                 
 NITROGEN BAL.  : SOIL-N, N-UPTAKE & DYNAMIC N-FIXATION SIMULATION              
 N-FERTILIZER   :        1 kg/ha IN     1 APPLICATIONS                          
 RESIDUE/MANURE : INITIAL :     0 kg/ha ;       0 kg/ha IN     0 APPLICATIONS   
 ENVIRONM. OPT. : DAYL=    0.00  SRAD=    0.00  TMAX=    0.00  TMIN=    0.00    
                  RAIN=    0.00  CO2 = R330.00  DEW =    0.00  WIND=    0.00    
 SIMULATION OPT : WATER   :Y  NITROGEN:Y  N-FIX:Y  PHOSPH :N  PESTS  :N         
                  PHOTO   :C  ET      :R  INFIL:S  HYDROL :R  SOM    :G         
 MANAGEMENT OPT : PLANTING:R  IRRIG   :N  FERT :D  RESIDUE:N  HARVEST:M  WTH:M  
                                                                                
*SUMMARY OF SOIL AND GENETIC INPUT PARAMETERS                                   
                                                                                
   SOIL LOWER UPPER   SAT  EXTR  INIT   ROOT   BULK     pH    NO3    NH4    ORG 
  DEPTH LIMIT LIMIT    SW    SW    SW   DIST   DENS                          C  
   cm   cm3/cm3    cm3/cm3    cm3/cm3         g/cm3         ugN/g  ugN/g     %  
------------------------------------------------------------------------------- 
  0-  5 0.331 0.542 0.585 0.211 0.394   1.00   1.11   6.50   5.00   1.50   2.74 
  5- 15 0.331 0.542 0.585 0.211 0.394   1.00   1.11   6.50   5.00   1.50   2.74 
 15- 30 0.331 0.542 0.585 0.211 0.394   1.00   1.11   6.50   5.00   1.50   2.74 
 30- 45 0.290 0.438 0.491 0.148 0.334   0.43   1.26   6.50   4.60   1.50   1.07 
 45- 60 0.292 0.431 0.480 0.138 0.375   0.39   1.29   6.27   2.45   1.50   0.90 
 60- 90 0.293 0.419 0.466 0.126 0.419   0.32   1.34   6.00   0.00   1.50   0.64 
 90-108 0.286 0.408 0.460 0.122 0.408   0.23   1.36   6.00   0.00   1.50   0.35 
108-125 0.276 0.395 0.456 0.119 0.395   0.12   1.38   6.00   0.00   1.50   0.14 
                                                                                
TOT-125  37.3  55.9  62.1  18.6  49.1  <--cm   -  kg/ha-->   30.1   23.9 166127 
SOIL ALBEDO    : 0.09      EVAPORATION LIMIT : 6.00         MIN. FACTOR  : 1.00 
RUNOFF CURVE # :10.00      DRAINAGE RATE     : 0.40         FERT. FACTOR : 1.00 
                                                                                
 SOYBEAN    CULTIVAR :UY0141-GM 4 UY            ECOTYPE :SB0401                 
 CSDVAR :13.39  PPSEN  : 0.29  EMG-FLW:21.50  FLW-FSD:18.00  FSD-PHM : 32.00    
 WTPSD  :0.190  SDPDVR : 2.20  SDFDUR :23.00  PODDUR :10.00  XFRUIT  :  1.00    
                                                                                
                                                                                
                                                                                
                                                                                
*SIMULATED CROP AND SOIL STATUS AT MAIN DEVELOPMENT STAGES

 RUN NO.     8     UYSB                    

        CROP GROWTH   BIOMASS         LEAF   CROP N     STRESS  
   DATE  AGE STAGE      kg/ha    LAI   NUM  kg/ha  %   H2O    N 
 ------  --- ---------- -----  -----  ----  ---  ---  ----  ----
 20 AUG    0 Start Sim      0   0.00   0.0    0  0.0  0.00  0.00
 23 AUG    0 Sowing         0   0.00   0.0    0  0.0  0.00  0.00
  3 SEP   11 Emergence      4   0.01   0.0    0  5.1  0.00  0.00
  3 SEP   11 End Juven.     4   0.01   0.0    0  5.1  0.00  0.00
 22 SEP   30 Unifoliate    10   0.02   1.1    0  4.9  0.00  0.00
 24 SEP   32 Flower Ind    12   0.02   1.3    1  4.9  0.00  0.00
  1 NOV   70 First Flwr   487   0.74   7.7   21  4.3  0.00  0.00
 14 NOV   83 First Pod   1567   1.58   9.9   61  3.9  0.00  0.00
  4 DEC  103 First Seed  3996   2.24  14.1  125  3.1  0.00  0.01
 16 DEC  115 End Leaf    5189   2.08  16.2  153  3.0  0.21  0.00
 19 DEC  118 End Msnode  5207   1.98  16.8  154  3.0  0.04  0.00
 21 DEC  120 End Pod     5330   1.88  16.8  159  3.0  0.00  0.00
 21 JAN  151 Phys. Mat   7399   1.41  16.8  268  3.6  0.00  0.02
  2 FEB  163 Harv. Mat   6337   0.09  16.8  248  3.9  0.00  0.05
  2 FEB  163 Harvest     6337   0.09  16.8  248  3.9  0.00  0.00


*MAIN GROWTH AND DEVELOPMENT VARIABLES

@     VARIABLE                          SIMULATED     MEASURED
      --------                          ---------     --------
      Anthesis day (dap)                       70          -99
      First pod day (dap)                      83          -99
      First seed day (dap)                    103          -99
      Physiological maturity day (dap)        151          -99
      Yield at harvest maturity (kg [dm]/    3455          -99
      Pod/Ear/Panicle weight at maturity     4950          -99
      Number at maturity (no/m2)             2102          -99
      Unit wt at maturity (g [dm]/unit)    0.1644          -99
      Number at maturity (no/unit)           2.20          -99
      Tops weight at maturity (kg [dm]/ha    6337          -99
      By-product produced (stalk) at matu    2880          -99
      Leaf area index, maximum               2.24          -99
      Harvest index at maturity             0.545          -99
      Threshing % at maturity               69.79          -99
      Grain N at maturity (kg/ha)             217          -99
      Tops N at maturity (kg/ha)              248          -99
      Stem N at maturity (kg/ha)                9          -99
      Grain N at maturity (%)                6.28          -99
      Tops weight at anthesis (kg [dm]/ha     487          -99
      Tops N at anthesis (kg/ha)               21          -99
      Leaf number per stem at maturity      16.82          -99
      Grain oil at maturity (%)             20.37          -99
      Canopy height (m)                      0.79          -99
      Harvest maturity day (dap)              163          -99


*ENVIRONMENTAL AND STRESS FACTORS

 |-----Development Phase------|-------------Environment--------------|---------Stress----------|
                              |--------Average-------|---Cumulative--|  (0=Min, 1=Max Stress)  |
                         Time  Temp  Temp Solar Photop         Evapo |----Water---|--Nitrogen--|
                         Span   Max   Min   Rad  [day]   Rain  Trans  Photo         Photo
                         days    øC    øC MJ/m2     hr     mm     mm  synth Growth  synth Growth
------------------------------------------------------------------------------------------------
 Emergence -First Flower   59  22.7  10.3  18.9  12.36   88.4   95.8  0.000  0.000  0.000  0.000
 First Flower-First Seed   33  25.5  13.9  22.5  13.67  116.5  150.0  0.000  0.000  0.000  0.009
 First Seed - Phys. Mat.   48  29.3  17.2  25.2  13.99  243.2  252.9  0.026  0.056  0.126  0.010
 Emergence  - Phys. Mat.  140  25.6  13.5  21.9  13.23  448.1  498.7  0.009  0.019  0.024  0.006

                   Soybean YIELD :     3455 kg/ha    [Dry weight] 

************************************************************************************************

*DSSAT Cropping System Model Ver. 4.0.2.000               Aug 23, 2016; 20:22:27
                                                                                
*RUN   9        : UYSB                                                          
 MODEL          : CRGRO040 - SOYBEAN                                            
 EXPERIMENT     : UYSB0397 SN late to create DSS                                
 TREATMENT  1   : UYSB                                                          
                                                                                
 CROP           : SOYBEAN        CULTIVAR : GM 4 UY          ECOTYPE :SB0401    
 STARTING DATE  : AUG 20 1999                                                   
 PLANTING DATE  : AUG 23 1999    PLANTS/m2 :  7.0     ROW SPACING :  15.cm      
 WEATHER        : UYTA   1999                                                   
 SOIL           : UYSS0N2002     TEXTURE :       -  N20-02    SNIA CLAY RISS    
 SOIL INITIAL C : DEPTH:125cm EXTR. H2O:186.3mm  NO3: 30.1kg/ha  NH4: 23.9kg/ha 
 WATER BALANCE  : RAINFED                                                       
 IRRIGATION     : NOT IRRIGATED                                                 
 NITROGEN BAL.  : SOIL-N, N-UPTAKE & DYNAMIC N-FIXATION SIMULATION              
 N-FERTILIZER   :        1 kg/ha IN     1 APPLICATIONS                          
 RESIDUE/MANURE : INITIAL :     0 kg/ha ;       0 kg/ha IN     0 APPLICATIONS   
 ENVIRONM. OPT. : DAYL=    0.00  SRAD=    0.00  TMAX=    0.00  TMIN=    0.00    
                  RAIN=    0.00  CO2 = R330.00  DEW =    0.00  WIND=    0.00    
 SIMULATION OPT : WATER   :Y  NITROGEN:Y  N-FIX:Y  PHOSPH :N  PESTS  :N         
                  PHOTO   :C  ET      :R  INFIL:S  HYDROL :R  SOM    :G         
 MANAGEMENT OPT : PLANTING:R  IRRIG   :N  FERT :D  RESIDUE:N  HARVEST:M  WTH:M  
                                                                                
*SUMMARY OF SOIL AND GENETIC INPUT PARAMETERS                                   
                                                                                
   SOIL LOWER UPPER   SAT  EXTR  INIT   ROOT   BULK     pH    NO3    NH4    ORG 
  DEPTH LIMIT LIMIT    SW    SW    SW   DIST   DENS                          C  
   cm   cm3/cm3    cm3/cm3    cm3/cm3         g/cm3         ugN/g  ugN/g     %  
------------------------------------------------------------------------------- 
  0-  5 0.331 0.542 0.585 0.211 0.394   1.00   1.11   6.50   5.00   1.50   2.74 
  5- 15 0.331 0.542 0.585 0.211 0.394   1.00   1.11   6.50   5.00   1.50   2.74 
 15- 30 0.331 0.542 0.585 0.211 0.394   1.00   1.11   6.50   5.00   1.50   2.74 
 30- 45 0.290 0.438 0.491 0.148 0.334   0.43   1.26   6.50   4.60   1.50   1.07 
 45- 60 0.292 0.431 0.480 0.138 0.375   0.39   1.29   6.27   2.45   1.50   0.90 
 60- 90 0.293 0.419 0.466 0.126 0.419   0.32   1.34   6.00   0.00   1.50   0.64 
 90-108 0.286 0.408 0.460 0.122 0.408   0.23   1.36   6.00   0.00   1.50   0.35 
108-125 0.276 0.395 0.456 0.119 0.395   0.12   1.38   6.00   0.00   1.50   0.14 
                                                                                
TOT-125  37.3  55.9  62.1  18.6  49.1  <--cm   -  kg/ha-->   30.1   23.9 166127 
SOIL ALBEDO    : 0.09      EVAPORATION LIMIT : 6.00         MIN. FACTOR  : 1.00 
RUNOFF CURVE # :10.00      DRAINAGE RATE     : 0.40         FERT. FACTOR : 1.00 
                                                                                
 SOYBEAN    CULTIVAR :UY0141-GM 4 UY            ECOTYPE :SB0401                 
 CSDVAR :13.39  PPSEN  : 0.29  EMG-FLW:21.50  FLW-FSD:18.00  FSD-PHM : 32.00    
 WTPSD  :0.190  SDPDVR : 2.20  SDFDUR :23.00  PODDUR :10.00  XFRUIT  :  1.00    
                                                                                
                                                                                
                                                                                
                                                                                
*SIMULATED CROP AND SOIL STATUS AT MAIN DEVELOPMENT STAGES

 RUN NO.     9     UYSB                    

        CROP GROWTH   BIOMASS         LEAF   CROP N     STRESS  
   DATE  AGE STAGE      kg/ha    LAI   NUM  kg/ha  %   H2O    N 
 ------  --- ---------- -----  -----  ----  ---  ---  ----  ----
 20 AUG    0 Start Sim      0   0.00   0.0    0  0.0  0.00  0.00
 23 AUG    0 Sowing         0   0.00   0.0    0  0.0  0.00  0.00
  6 SEP   14 Emergence      4   0.01   0.1    0  5.2  0.00  0.00
  6 SEP   14 End Juven.     4   0.01   0.1    0  5.2  0.00  0.00
 12 SEP   20 Flower Ind     6   0.01   0.9    0  5.0  0.00  0.00
 14 SEP   22 Unifoliate     6   0.01   1.1    0  5.0  0.00  0.00
 25 OCT   63 First Flwr   308   0.46   6.9   13  4.4  0.00  0.00
  6 NOV   75 First Pod    926   1.04   9.0   38  4.1  0.00  0.00
 28 NOV   97 First Seed  3222   1.49  12.9   88  2.7  0.00  0.10
 10 DEC  109 End Leaf    4382   1.44  15.3  123  2.8  0.08  0.00
 14 DEC  113 End Msnode  4497   1.39  15.6  123  2.7  0.53  0.00
 15 DEC  114 End Pod     4514   1.37  15.6  123  2.7  0.53  0.00
  8 JAN  138 Phys. Mat   3900   0.63  15.6  110  2.8  0.56  0.00
 20 JAN  150 Harv. Mat   3212   0.04  15.6   98  3.1  0.31  0.02
 20 JAN  150 Harvest     3212   0.04  15.6   98  3.1  0.00  0.00


*MAIN GROWTH AND DEVELOPMENT VARIABLES

@     VARIABLE                          SIMULATED     MEASURED
      --------                          ---------     --------
      Anthesis day (dap)                       63          -99
      First pod day (dap)                      75          -99
      First seed day (dap)                     97          -99
      Physiological maturity day (dap)        138          -99
      Yield at harvest maturity (kg [dm]/    1269          -99
      Pod/Ear/Panicle weight at maturity     2098          -99
      Number at maturity (no/m2)             1076          -99
      Unit wt at maturity (g [dm]/unit)    0.1180          -99
      Number at maturity (no/unit)           2.20          -99
      Tops weight at maturity (kg [dm]/ha    3212          -99
      By-product produced (stalk) at matu    1940          -99
      Leaf area index, maximum               1.50          -99
      Harvest index at maturity             0.395          -99
      Threshing % at maturity               60.50          -99
      Grain N at maturity (kg/ha)              78          -99
      Tops N at maturity (kg/ha)               98          -99
      Stem N at maturity (kg/ha)                8          -99
      Grain N at maturity (%)                6.13          -99
      Tops weight at anthesis (kg [dm]/ha     308          -99
      Tops N at anthesis (kg/ha)               13          -99
      Leaf number per stem at maturity      15.62          -99
      Grain oil at maturity (%)             20.87          -99
      Canopy height (m)                      0.71          -99
      Harvest maturity day (dap)              150          -99


*ENVIRONMENTAL AND STRESS FACTORS

 |-----Development Phase------|-------------Environment--------------|---------Stress----------|
                              |--------Average-------|---Cumulative--|  (0=Min, 1=Max Stress)  |
                         Time  Temp  Temp Solar Photop         Evapo |----Water---|--Nitrogen--|
                         Span   Max   Min   Rad  [day]   Rain  Trans  Photo         Photo
                         days    øC    øC MJ/m2     hr     mm     mm  synth Growth  synth Growth
------------------------------------------------------------------------------------------------
 Emergence -First Flower   49  21.9  12.7  13.9  12.30  232.4   92.0  0.000  0.000  0.000  0.000
 First Flower-First Seed   34  24.3  12.9  22.8  13.52  129.6  138.7  0.000  0.000  0.000  0.067
 First Seed - Phys. Mat.   41  29.8  16.2  26.2  14.02   54.5  138.9  0.308  0.419  0.075  0.001
 Emergence  - Phys. Mat.  124  25.2  13.9  20.4  13.20  416.5  369.6  0.102  0.139  0.006  0.019

                   Soybean YIELD :     1269 kg/ha    [Dry weight] 

************************************************************************************************

*DSSAT Cropping System Model Ver. 4.0.2.000               Aug 23, 2016; 20:22:27
                                                                                
*RUN  10        : UYSB                                                          
 MODEL          : CRGRO040 - SOYBEAN                                            
 EXPERIMENT     : UYSB0397 SN late to create DSS                                
 TREATMENT  1   : UYSB                                                          
                                                                                
 CROP           : SOYBEAN        CULTIVAR : GM 4 UY          ECOTYPE :SB0401    
 STARTING DATE  : AUG 20 1999                                                   
 PLANTING DATE  : AUG 23 1999    PLANTS/m2 :  7.0     ROW SPACING :  15.cm      
 WEATHER        : UYTA   1999                                                   
 SOIL           : UYSS0N2002     TEXTURE :       -  N20-02    SNIA CLAY RISS    
 SOIL INITIAL C : DEPTH:125cm EXTR. H2O:186.3mm  NO3: 30.1kg/ha  NH4: 23.9kg/ha 
 WATER BALANCE  : RAINFED                                                       
 IRRIGATION     : NOT IRRIGATED                                                 
 NITROGEN BAL.  : SOIL-N, N-UPTAKE & DYNAMIC N-FIXATION SIMULATION              
 N-FERTILIZER   :        1 kg/ha IN     1 APPLICATIONS                          
 RESIDUE/MANURE : INITIAL :     0 kg/ha ;       0 kg/ha IN     0 APPLICATIONS   
 ENVIRONM. OPT. : DAYL=    0.00  SRAD=    0.00  TMAX=    0.00  TMIN=    0.00    
                  RAIN=    0.00  CO2 = R330.00  DEW =    0.00  WIND=    0.00    
 SIMULATION OPT : WATER   :Y  NITROGEN:Y  N-FIX:Y  PHOSPH :N  PESTS  :N         
                  PHOTO   :C  ET      :R  INFIL:S  HYDROL :R  SOM    :G         
 MANAGEMENT OPT : PLANTING:R  IRRIG   :N  FERT :D  RESIDUE:N  HARVEST:M  WTH:M  
                                                                                
*SUMMARY OF SOIL AND GENETIC INPUT PARAMETERS                                   
                                                                                
   SOIL LOWER UPPER   SAT  EXTR  INIT   ROOT   BULK     pH    NO3    NH4    ORG 
  DEPTH LIMIT LIMIT    SW    SW    SW   DIST   DENS                          C  
   cm   cm3/cm3    cm3/cm3    cm3/cm3         g/cm3         ugN/g  ugN/g     %  
------------------------------------------------------------------------------- 
  0-  5 0.331 0.542 0.585 0.211 0.394   1.00   1.11   6.50   5.00   1.50   2.74 
  5- 15 0.331 0.542 0.585 0.211 0.394   1.00   1.11   6.50   5.00   1.50   2.74 
 15- 30 0.331 0.542 0.585 0.211 0.394   1.00   1.11   6.50   5.00   1.50   2.74 
 30- 45 0.290 0.438 0.491 0.148 0.334   0.43   1.26   6.50   4.60   1.50   1.07 
 45- 60 0.292 0.431 0.480 0.138 0.375   0.39   1.29   6.27   2.45   1.50   0.90 
 60- 90 0.293 0.419 0.466 0.126 0.419   0.32   1.34   6.00   0.00   1.50   0.64 
 90-108 0.286 0.408 0.460 0.122 0.408   0.23   1.36   6.00   0.00   1.50   0.35 
108-125 0.276 0.395 0.456 0.119 0.395   0.12   1.38   6.00   0.00   1.50   0.14 
                                                                                
TOT-125  37.3  55.9  62.1  18.6  49.1  <--cm   -  kg/ha-->   30.1   23.9 166127 
SOIL ALBEDO    : 0.09      EVAPORATION LIMIT : 6.00         MIN. FACTOR  : 1.00 
RUNOFF CURVE # :10.00      DRAINAGE RATE     : 0.40         FERT. FACTOR : 1.00 
                                                                                
 SOYBEAN    CULTIVAR :UY0141-GM 4 UY            ECOTYPE :SB0401                 
 CSDVAR :13.39  PPSEN  : 0.29  EMG-FLW:21.50  FLW-FSD:18.00  FSD-PHM : 32.00    
 WTPSD  :0.190  SDPDVR : 2.20  SDFDUR :23.00  PODDUR :10.00  XFRUIT  :  1.00    
                                                                                
                                                                                
                                                                                
                                                                                
*SIMULATED CROP AND SOIL STATUS AT MAIN DEVELOPMENT STAGES

 RUN NO.    10     UYSB                    

        CROP GROWTH   BIOMASS         LEAF   CROP N     STRESS  
   DATE  AGE STAGE      kg/ha    LAI   NUM  kg/ha  %   H2O    N 
 ------  --- ---------- -----  -----  ----  ---  ---  ----  ----
 19 AUG    0 Start Sim      0   0.00   0.0    0  0.0  0.00  0.00
 22 AUG    0 Sowing         0   0.00   0.0    0  0.0  0.00  0.00
  1 SEP   10 Emergence      4   0.01   0.0    0  5.1  0.00  0.00
  1 SEP   10 End Juven.     4   0.01   0.0    0  5.1  0.00  0.00
 25 SEP   34 Unifoliate    11   0.01   1.1    1  4.9  0.00  0.00
 26 SEP   35 Flower Ind    12   0.02   1.2    1  4.9  0.00  0.00
  4 NOV   74 First Flwr   436   0.60   7.4   19  4.3  0.00  0.00
 14 NOV   84 First Pod   1300   1.46   9.7   53  4.1  0.00  0.00
  5 DEC  105 First Seed  4111   2.16  14.1  125  3.0  0.00  0.02
 16 DEC  116 End Leaf    5265   2.05  16.3  156  3.0  0.12  0.00
 21 DEC  121 End Pod     5117   1.83  16.6  147  2.9  0.73  0.00
 22 DEC  122 End Msnode  5056   1.75  16.7  144  2.8  0.27  0.00
 12 JAN  143 Phys. Mat   4214   0.93  16.7  120  2.9  0.78  0.01
 24 JAN  155 Harv. Mat   3345   0.06  16.7  101  3.0  0.72  0.00
 24 JAN  155 Harvest     3345   0.06  16.7  101  3.0  0.00  0.00


*MAIN GROWTH AND DEVELOPMENT VARIABLES

@     VARIABLE                          SIMULATED     MEASURED
      --------                          ---------     --------
      Anthesis day (dap)                       74          -99
      First pod day (dap)                      84          -99
      First seed day (dap)                    105          -99
      Physiological maturity day (dap)        143          -99
      Yield at harvest maturity (kg [dm]/    1030          -99
      Pod/Ear/Panicle weight at maturity     2105          -99
      Number at maturity (no/m2)             1371          -99
      Unit wt at maturity (g [dm]/unit)    0.0751          -99
      Number at maturity (no/unit)           2.20          -99
      Tops weight at maturity (kg [dm]/ha    3345          -99
      By-product produced (stalk) at matu    2310          -99
      Leaf area index, maximum               2.16          -99
      Harvest index at maturity             0.308          -99
      Threshing % at maturity               48.95          -99
[...]
  5 SEP   13 End Juven.     4   0.01   0.0    0  5.1  0.00  0.00
 26 SEP   34 Unifoliate    11   0.02   1.2    1  4.9  0.00  0.00
 27 SEP   35 Flower Ind    12   0.02   1.3    1  4.9  0.00  0.00
  7 NOV   76 First Flwr   549   0.69   7.6   23  4.3  0.00  0.00
 21 NOV   90 First Pod   1669   1.76  10.1   68  4.1  0.00  0.00
 11 DEC  110 First Seed  4788   2.55  14.7  149  3.1  0.00  0.02
 25 DEC  124 End Leaf    5436   2.05  16.6  159  2.9  0.25  0.00
 28 DEC  127 End Pod     5503   1.99  16.8  158  2.9  0.61  0.00
 30 DEC  129 End Msnode  5399   1.95  16.9  154  2.8  0.80  0.00
 18 JAN  148 Phys. Mat   4595   1.05  16.9  128  2.8  0.70  0.01
 30 JAN  160 Harv. Mat   3623   0.07  16.9  106  2.9  0.67  0.00
 30 JAN  160 Harvest     3623   0.07  16.9  106  2.9  0.00  0.00


*MAIN GROWTH AND DEVELOPMENT VARIABLES

@     VARIABLE                          SIMULATED     MEASURED
      --------                          ---------     --------
      Anthesis day (dap)                       76          -99
      First pod day (dap)                      90          -99
      First seed day (dap)                    110          -99
      Physiological maturity day (dap)        148          -99
      Yield at harvest maturity (kg [dm]/    1192          -99
      Pod/Ear/Panicle weight at maturity     2211          -99
      Number at maturity (no/m2)             1269          -99
      Unit wt at maturity (g [dm]/unit)    0.0939          -99
      Number at maturity (no/unit)           2.20          -99
      Tops weight at maturity (kg [dm]/ha    3623          -99
      By-product produced (stalk) at matu    2430          -99
      Leaf area index, maximum               2.55          -99
      Harvest index at maturity             0.329          -99
      Threshing % at maturity               53.90          -99
      Grain N at maturity (kg/ha)              71          -99
      Tops N at maturity (kg/ha)              106          -99
      Stem N at maturity (kg/ha)               14          -99
      Grain N at maturity (%)                5.93          -99
      Tops weight at anthesis (kg [dm]/ha     549          -99
      Tops N at anthesis (kg/ha)               23          -99
      Leaf number per stem at maturity      16.87          -99
      Grain oil at maturity (%)             20.74          -99
      Canopy height (m)                      0.75          -99
      Harvest maturity day (dap)              160          -99


*ENVIRONMENTAL AND STRESS FACTORS

 |-----Development Phase------|-------------Environment--------------|---------Stress----------|
                              |--------Average-------|---Cumulative--|  (0=Min, 1=Max Stress)  |
                         Time  Temp  Temp Solar Photop         Evapo |----Water---|--Nitrogen--|
                         Span   Max   Min   Rad  [day]   Rain  Trans  Photo         Photo
                         days    øC    øC MJ/m2     hr     mm     mm  synth Growth  synth Growth
------------------------------------------------------------------------------------------------
 Emergence -First Flower   63  21.5  10.2  17.9  12.49  246.5  117.0  0.000  0.000  0.000  0.000
 First Flower-First Seed   34  27.3  14.2  25.2  13.79  104.0  171.0  0.000  0.000  0.000  0.011
 First Seed - Phys. Mat.   38  29.4  15.5  24.4  14.01   49.2  102.3  0.439  0.531  0.078  0.007
 Emergence  - Phys. Mat.  135  25.2  12.7  21.6  13.24  399.7  390.3  0.123  0.150  0.002  0.005

                   Soybean YIELD :     1192 kg/ha    [Dry weight] 

************************************************************************************************

*DSSAT Cropping System Model Ver. 4.0.2.000               Aug 23, 2016; 20:22:27
                                                                                
*RUN  14        : UYSB                                                          
 MODEL          : CRGRO040 - SOYBEAN                                            
 EXPERIMENT     : UYSB0397 SN late to create DSS                                
 TREATMENT  1   : UYSB                                                          
                                                                                
 CROP           : SOYBEAN        CULTIVAR : GM 4 UY          ECOTYPE :SB0401    
 STARTING DATE  : AUG 20 1999                                                   
 PLANTING DATE  : AUG 23 1999    PLANTS/m2 :  7.0     ROW SPACING :  15.cm      
 WEATHER        : UYTA   1999                                                   
 SOIL           : UYSS0N2002     TEXTURE :       -  N20-02    SNIA CLAY RISS    
 SOIL INITIAL C : DEPTH:125cm EXTR. H2O:186.3mm  NO3: 30.1kg/ha  NH4: 23.9kg/ha 
 WATER BALANCE  : RAINFED                                                       
 IRRIGATION     : NOT IRRIGATED                                                 
 NITROGEN BAL.  : SOIL-N, N-UPTAKE & DYNAMIC N-FIXATION SIMULATION              
 N-FERTILIZER   :        1 kg/ha IN     1 APPLICATIONS                          
 RESIDUE/MANURE : INITIAL :     0 kg/ha ;       0 kg/ha IN     0 APPLICATIONS   
 ENVIRONM. OPT. : DAYL=    0.00  SRAD=    0.00  TMAX=    0.00  TMIN=    0.00    
                  RAIN=    0.00  CO2 = R330.00  DEW =    0.00  WIND=    0.00    
 SIMULATION OPT : WATER   :Y  NITROGEN:Y  N-FIX:Y  PHOSPH :N  PESTS  :N         
                  PHOTO   :C  ET      :R  INFIL:S  HYDROL :R  SOM    :G         
 MANAGEMENT OPT : PLANTING:R  IRRIG   :N  FERT :D  RESIDUE:N  HARVEST:M  WTH:M  
                                                                                
*SUMMARY OF SOIL AND GENETIC INPUT PARAMETERS                                   
                                                                                
   SOIL LOWER UPPER   SAT  EXTR  INIT   ROOT   BULK     pH    NO3    NH4    ORG 
  DEPTH LIMIT LIMIT    SW    SW    SW   DIST   DENS                          C  
   cm   cm3/cm3    cm3/cm3    cm3/cm3         g/cm3         ugN/g  ugN/g     %  
------------------------------------------------------------------------------- 
  0-  5 0.331 0.542 0.585 0.211 0.394   1.00   1.11   6.50   5.00   1.50   2.74 
  5- 15 0.331 0.542 0.585 0.211 0.394   1.00   1.11   6.50   5.00   1.50   2.74 
 15- 30 0.331 0.542 0.585 0.211 0.394   1.00   1.11   6.50   5.00   1.50   2.74 
 30- 45 0.290 0.438 0.491 0.148 0.334   0.43   1.26   6.50   4.60   1.50   1.07 
 45- 60 0.292 0.431 0.480 0.138 0.375   0.39   1.29   6.27   2.45   1.50   0.90 
 60- 90 0.293 0.419 0.466 0.126 0.419   0.32   1.34   6.00   0.00   1.50   0.64 
 90-108 0.286 0.408 0.460 0.122 0.408   0.23   1.36   6.00   0.00   1.50   0.35 
108-125 0.276 0.395 0.456 0.119 0.395   0.12   1.38   6.00   0.00   1.50   0.14 
                                                                                
TOT-125  37.3  55.9  62.1  18.6  49.1  <--cm   -  kg/ha-->   30.1   23.9 166127 
SOIL ALBEDO    : 0.09      EVAPORATION LIMIT : 6.00         MIN. FACTOR  : 1.00 
RUNOFF CURVE # :10.00      DRAINAGE RATE     : 0.40         FERT. FACTOR : 1.00 
                                                                                
 SOYBEAN    CULTIVAR :UY0141-GM 4 UY            ECOTYPE :SB0401                 
 CSDVAR :13.39  PPSEN  : 0.29  EMG-FLW:21.50  FLW-FSD:18.00  FSD-PHM : 32.00    
 WTPSD  :0.190  SDPDVR : 2.20  SDFDUR :23.00  PODDUR :10.00  XFRUIT  :  1.00    
                                                                                
                                                                                
                                                                                
                                                                                
*SIMULATED CROP AND SOIL STATUS AT MAIN DEVELOPMENT STAGES

 RUN NO.    14     UYSB                    

        CROP GROWTH   BIOMASS         LEAF   CROP N     STRESS  
   DATE  AGE STAGE      kg/ha    LAI   NUM  kg/ha  %   H2O    N 
 ------  --- ---------- -----  -----  ----  ---  ---  ----  ----
 19 AUG    0 Start Sim      0   0.00   0.0    0  0.0  0.00  0.00
 22 AUG    0 Sowing         0   0.00   0.0    0  0.0  0.00  0.00
  1 SEP   10 Emergence      4   0.01   0.1    0  5.1  0.00  0.00
  1 SEP   10 End Juven.     4   0.01   0.1    0  5.1  0.00  0.00
 15 SEP   24 Unifoliate     8   0.02   1.2    0  4.9  0.00  0.00
 15 SEP   24 Flower Ind     8   0.02   1.2    0  4.9  0.00  0.00
 27 OCT   66 First Flwr   443   0.61   7.4   19  4.3  0.00  0.00
  7 NOV   77 First Pod   1289   1.43   9.7   52  4.0  0.00  0.00
 26 NOV   96 First Seed  3730   1.92  13.6  111  3.0  0.00  0.06
  6 DEC  106 End Leaf    4575   1.83  15.8  136  3.0  0.09  0.00
 10 DEC  110 End Msnode  4916   1.76  16.6  148  3.0  0.00  0.00
 13 DEC  113 End Pod     5079   1.72  16.6  155  3.1  0.00  0.00
 15 JAN  146 Phys. Mat   6963   1.27  16.6  261  3.7  0.00  0.01
 27 JAN  158 Harv. Mat   6062   0.08  16.6  244  4.0  0.00  0.05
 27 JAN  158 Harvest     6062   0.08  16.6  244  4.0  0.00  0.00


*MAIN GROWTH AND DEVELOPMENT VARIABLES

@     VARIABLE                          SIMULATED     MEASURED
      --------                          ---------     --------
      Anthesis day (dap)                       66          -99
      First pod day (dap)                      77          -99
      First seed day (dap)                     96          -99
      Physiological maturity day (dap)        146          -99
      Yield at harvest maturity (kg [dm]/    3499          -99
      Pod/Ear/Panicle weight at maturity     4924          -99
      Number at maturity (no/m2)             1991          -99
      Unit wt at maturity (g [dm]/unit)    0.1757          -99
      Number at maturity (no/unit)           2.20          -99
      Tops weight at maturity (kg [dm]/ha    6062          -99
      By-product produced (stalk) at matu    2560          -99
      Leaf area index, maximum               1.92          -99
      Harvest index at maturity             0.577          -99
      Threshing % at maturity               71.06          -99
      Grain N at maturity (kg/ha)             216          -99
      Tops N at maturity (kg/ha)              244          -99
      Stem N at maturity (kg/ha)                8          -99
      Grain N at maturity (%)                6.19          -99
      Tops weight at anthesis (kg [dm]/ha     443          -99
      Tops N at anthesis (kg/ha)               19          -99
      Leaf number per stem at maturity      16.61          -99
      Grain oil at maturity (%)             20.18          -99
      Canopy height (m)                      0.80          -99
      Harvest maturity day (dap)              158          -99


*ENVIRONMENTAL AND STRESS FACTORS

 |-----Development Phase------|-------------Environment--------------|---------Stress----------|
                              |--------Average-------|---Cumulative--|  (0=Min, 1=Max Stress)  |
                         Time  Temp  Temp Solar Photop         Evapo |----Water---|--Nitrogen--|
                         Span   Max   Min   Rad  [day]   Rain  Trans  Photo         Photo
                         days    øC    øC MJ/m2     hr     mm     mm  synth Growth  synth Growth
------------------------------------------------------------------------------------------------
 Emergence -First Flower   56  21.9  11.3  16.1  12.28  337.4  103.8  0.000  0.000  0.000  0.000
 First Flower-First Seed   30  27.0  14.6  23.5  13.55   68.8  142.3  0.000  0.000  0.000  0.040
 First Seed - Phys. Mat.   50  29.2  15.9  24.2  14.00  304.3  257.4  0.003  0.018  0.135  0.010
 Emergence  - Phys. Mat.  136  25.7  13.7  20.7  13.19  710.5  503.4  0.001  0.007  0.032  0.012

                   Soybean YIELD :     3499 kg/ha    [Dry weight] 

************************************************************************************************

*DSSAT Cropping System Model Ver. 4.0.2.000               Aug 23, 2016; 20:22:27
                                                                                
*RUN  15        : UYSB                                                          
 MODEL          : CRGRO040 - SOYBEAN                                            
 EXPERIMENT     : UYSB0397 SN late to create DSS                                
 TREATMENT  1   : UYSB                                                          
                                                                                
 CROP           : SOYBEAN        CULTIVAR : GM 4 UY          ECOTYPE :SB0401    
 STARTING DATE  : AUG 20 1999                                                   
 PLANTING DATE  : AUG 23 1999    PLANTS/m2 :  7.0     ROW SPACING :  15.cm      
 WEATHER        : UYTA   1999                                                   
 SOIL           : UYSS0N2002     TEXTURE :       -  N20-02    SNIA CLAY RISS    
 SOIL INITIAL C : DEPTH:125cm EXTR. H2O:186.3mm  NO3: 30.1kg/ha  NH4: 23.9kg/ha 
 WATER BALANCE  : RAINFED                                                       
 IRRIGATION     : NOT IRRIGATED                                                 
 NITROGEN BAL.  : SOIL-N, N-UPTAKE & DYNAMIC N-FIXATION SIMULATION              
 N-FERTILIZER   :        1 kg/ha IN     1 APPLICATIONS                          
 RESIDUE/MANURE : INITIAL :     0 kg/ha ;       0 kg/ha IN     0 APPLICATIONS   
 ENVIRONM. OPT. : DAYL=    0.00  SRAD=    0.00  TMAX=    0.00  TMIN=    0.00    
                  RAIN=    0.00  CO2 = R330.00  DEW =    0.00  WIND=    0.00    
 SIMULATION OPT : WATER   :Y  NITROGEN:Y  N-FIX:Y  PHOSPH :N  PESTS  :N         
                  PHOTO   :C  ET      :R  INFIL:S  HYDROL :R  SOM    :G         
 MANAGEMENT OPT : PLANTING:R  IRRIG   :N  FERT :D  RESIDUE:N  HARVEST:M  WTH:M  
                                                                                
*SUMMARY OF SOIL AND GENETIC INPUT PARAMETERS                                   
                                                                                
   SOIL LOWER UPPER   SAT  EXTR  INIT   ROOT   BULK     pH    NO3    NH4    ORG 
  DEPTH LIMIT LIMIT    SW    SW    SW   DIST   DENS                          C  
   cm   cm3/cm3    cm3/cm3    cm3/cm3         g/cm3         ugN/g  ugN/g     %  
------------------------------------------------------------------------------- 
  0-  5 0.331 0.542 0.585 0.211 0.394   1.00   1.11   6.50   5.00   1.50   2.74 
  5- 15 0.331 0.542 0.585 0.211 0.394   1.00   1.11   6.50   5.00   1.50   2.74 
 15- 30 0.331 0.542 0.585 0.211 0.394   1.00   1.11   6.50   5.00   1.50   2.74 
 30- 45 0.290 0.438 0.491 0.148 0.334   0.43   1.26   6.50   4.60   1.50   1.07 
 45- 60 0.292 0.431 0.480 0.138 0.375   0.39   1.29   6.27   2.45   1.50   0.90 
 60- 90 0.293 0.419 0.466 0.126 0.419   0.32   1.34   6.00   0.00   1.50   0.64 
 90-108 0.286 0.408 0.460 0.122 0.408   0.23   1.36   6.00   0.00   1.50   0.35 
108-125 0.276 0.395 0.456 0.119 0.395   0.12   1.38   6.00   0.00   1.50   0.14 
                                                                                
TOT-125  37.3  55.9  62.1  18.6  49.1  <--cm   -  kg/ha-->   30.1   23.9 166127 
SOIL ALBEDO    : 0.09      EVAPORATION LIMIT : 6.00         MIN. FACTOR  : 1.00 
RUNOFF CURVE # :10.00      DRAINAGE RATE     : 0.40         FERT. FACTOR : 1.00 
                                                                                
 SOYBEAN    CULTIVAR :UY0141-GM 4 UY            ECOTYPE :SB0401                 
 CSDVAR :13.39  PPSEN  : 0.29  EMG-FLW:21.50  FLW-FSD:18.00  FSD-PHM : 32.00    
 WTPSD  :0.190  SDPDVR : 2.20  SDFDUR :23.00  PODDUR :10.00  XFRUIT  :  1.00    
                                                                                
                                                                                
                                                                                
                                                                                
*SIMULATED CROP AND SOIL STATUS AT MAIN DEVELOPMENT STAGES

 RUN NO.    15     UYSB                    

        CROP GROWTH   BIOMASS         LEAF   CROP N     STRESS  
   DATE  AGE STAGE      kg/ha    LAI   NUM  kg/ha  %   H2O    N 
 ------  --- ---------- -----  -----  ----  ---  ---  ----  ----
 20 AUG    0 Start Sim      0   0.00   0.0    0  0.0  0.00  0.00
 23 AUG    0 Sowing         0   0.00   0.0    0  0.0  0.00  0.00
  4 SEP   12 Emergence      4   0.01   0.0    0  5.1  0.00  0.00
  4 SEP   12 End Juven.     4   0.01   0.0    0  5.1  0.00  0.00
 15 SEP   23 Unifoliate     8   0.01   1.1    0  5.0  0.01  0.00
 15 SEP   23 Flower Ind     8   0.01   1.1    0  5.0  0.00  0.00
  2 NOV   71 First Flwr   417   0.64   7.5   18  4.3  0.00  0.00
 14 NOV   83 First Pod   1323   1.52   9.9   50  3.8  0.00  0.02
  3 DEC  102 First Seed  3802   2.17  14.0  114  3.0  0.00  0.02
 14 DEC  113 End Leaf    5131   2.10  16.4  155  3.0  0.00  0.00
 18 DEC  117 End Msnode  5469   2.04  17.3  166  3.0  0.00  0.00
 21 DEC  120 End Pod     5677   1.99  17.3  173  3.1  0.20  0.00
 15 JAN  145 Phys. Mat   5282   0.93  17.3  162  3.1  0.43  0.02
 27 JAN  157 Harv. Mat   4530   0.06  17.3  147  3.3  0.16  0.03
 27 JAN  157 Harvest     4530   0.06  17.3  147  3.3  0.00  0.00


*MAIN GROWTH AND DEVELOPMENT VARIABLES

@     VARIABLE                          SIMULATED     MEASURED
      --------                          ---------     --------
      Anthesis day (dap)                       71          -99
      First pod day (dap)                      83          -99
      First seed day (dap)                    102          -99
      Physiological maturity day (dap)        145          -99
      Yield at harvest maturity (kg [dm]/    1967          -99
      Pod/Ear/Panicle weight at maturity     3221          -99
      Number at maturity (no/m2)             1748          -99
      Unit wt at maturity (g [dm]/unit)    0.1126          -99
      Number at maturity (no/unit)           2.20          -99
      Tops weight at maturity (kg [dm]/ha    4530          -99
      By-product produced (stalk) at matu    2560          -99
      Leaf area index, maximum               2.17          -99
      Harvest index at maturity             0.434          -99
      Threshing % at maturity               61.07          -99
      Grain N at maturity (kg/ha)             119          -99
      Tops N at maturity (kg/ha)              147          -99
      Stem N at maturity (kg/ha)               10          -99
      Grain N at maturity (%)                6.03          -99
      Tops weight at anthesis (kg [dm]/ha     417          -99
      Tops N at anthesis (kg/ha)               18          -99
      Leaf number per stem at maturity      17.34          -99
      Grain oil at maturity (%)             21.41          -99
      Canopy height (m)                      0.82          -99
      Harvest maturity day (dap)              157          -99


*ENVIRONMENTAL AND STRESS FACTORS

 |-----Development Phase------|-------------Environment--------------|---------Stress----------|
                              |--------Average-------|---Cumulative--|  (0=Min, 1=Max Stress)  |
                         Time  Temp  Temp Solar Photop         Evapo |----Water---|--Nitrogen--|
                         Span   Max   Min   Rad  [day]   Rain  Trans  Photo         Photo
                         days    øC    øC MJ/m2     hr     mm     mm  synth Growth  synth Growth
------------------------------------------------------------------------------------------------
 Emergence -First Flower   59  22.1  10.4  16.9  12.39  353.6  105.9  0.000  0.003  0.000  0.000
 First Flower-First Seed   31  25.9  15.7  22.6  13.67  280.6  156.4  0.000  0.000  0.000  0.021
 First Seed - Phys. Mat.   43  31.2  17.8  25.3  14.02   75.6  184.5  0.205  0.266  0.121  0.009
 Emergence  - Phys. Mat.  133  25.9  14.0  20.9  13.22  709.8  446.8  0.066  0.087  0.020  0.008

                   Soybean YIELD :     1967 kg/ha    [Dry weight] 

************************************************************************************************
