*PLANT N OUTPUT FILE

*DSSAT Cropping System Model Ver. 4.0.2.000               Aug 23, 2016; 20:22:27

*RUN   1        : UYSB                    
 MODEL          : CRGRO040 - Soybean         
 EXPERIMENT     : UYSB0397 SB    late to create DSS                             
 TREATMENT  1   : UYSB                    

@YEAR DOY   DAS   DAP    CNAD    GNAD    VNAD    GN%D    VN%D     NFXC    NUPC    LNAD    SNAD    LN%D    SN%D    SHND   RN%D   NFXD   SNN0C   SNN1C
 1999 235     3     0     0.0     0.0     0.0    0.00    0.00      0.0     0.0     0.0     0.0    0.00    0.00     0.0    0.0    0.0    0.00    0.00
 1999 236     4     1     0.0     0.0     0.0    0.00    0.00      0.0     0.0     0.0     0.0    0.00    0.00     0.0    0.0    0.0    0.00    0.00
 1999 237     5     2     0.0     0.0     0.0    0.00    0.00      0.0     0.0     0.0     0.0    0.00    0.00     0.0    0.0    0.0    0.00    0.00
 1999 238     6     3     0.0     0.0     0.0    0.00    0.00      0.0     0.0     0.0     0.0    0.00    0.00     0.0    0.0    0.0    0.00    0.00
 1999 239     7     4     0.0     0.0     0.0    0.00    0.00      0.0     0.0     0.0     0.0    0.00    0.00     0.0    0.0    0.0    0.00    0.00
 1999 240     8     5     0.0     0.0     0.0    0.00    0.00      0.0     0.0     0.0     0.0    0.00    0.00     0.0    0.0    0.0    0.00    0.00
 1999 241     9     6     0.0     0.0     0.0    0.00    0.00      0.0     0.0     0.0     0.0    0.00    0.00     0.0    0.0    0.0    0.00    0.00
 1999 242    10     7     0.0     0.0     0.0    0.00    0.00      0.0     0.0     0.0     0.0    0.00    0.00     0.0    0.0    0.0    0.00    0.00
 1999 243    11     8     0.0     0.0     0.0    0.00    0.00      0.0     0.0     0.0     0.0    0.00    0.00     0.0    0.0    0.0    0.00    0.00
 1999 244    12     9     0.0     0.0     0.0    0.00    0.00      0.0     0.0     0.0     0.0    0.00    0.00     0.0    0.0    0.0    0.00    0.00
 1999 245    13    10     0.0     0.0     0.0    0.00    0.00      0.0     0.0     0.0     0.0    0.00    0.00     0.0    0.0    0.0    0.00    0.00
 1999 246    14    11     0.2     0.0     0.2    0.00    5.15      0.0     0.0     0.2     0.0    5.70    2.64     0.0    1.5    0.0    0.00    0.00
 1999 247    15    12     0.2     0.0     0.2    0.00    5.16      0.0     0.0     0.2     0.0    5.70    2.64     0.0    1.5    0.0    0.00    0.01
 1999 248    16    13     0.2     0.0     0.2    0.00    5.17      0.0     0.0     0.2     0.0    5.70    2.65     0.0    1.5    0.0    0.00    0.01
 1999 249    17    14     0.2     0.0     0.2    0.00    5.14      0.0     0.0     0.2     0.0    5.70    2.65     0.0    1.5    0.0    0.00    0.01
 1999 250    18    15     0.2     0.0     0.2    0.00    5.14      0.0     0.1     0.2     0.0    5.71    2.65     0.0    1.5    0.0    0.00    0.01
 1999 251    19    16     0.2     0.0     0.2    0.00    5.12      0.0     0.1     0.2     0.0    5.71    2.65     0.0    1.5    0.0    0.00    0.01
 1999 252    20    17     0.3     0.0     0.3    0.00    5.10      0.1     0.1     0.2     0.0    5.71    2.65     0.0    1.5    0.0    0.00    0.02
 1999 253    21    18     0.3     0.0     0.3    0.00    5.08      0.1     0.1     0.2     0.0    5.71    2.65     0.0    1.5    0.0    0.00    0.02
 1999 254    22    19     0.3     0.0     0.3    0.00    5.06      0.1     0.1     0.3     0.0    5.71    2.65     0.0    1.5    0.0    0.00    0.02
 1999 255    23    20     0.3     0.0     0.3    0.00    5.03      0.1     0.2     0.3     0.0    5.71    2.65     0.0    1.5    0.0    0.00    0.02
 1999 256    24    21     0.3     0.0     0.3    0.00    5.00      0.1     0.2     0.3     0.0    5.71    2.65     0.0    1.5    0.0    0.00    0.02
 1999 257    25    22     0.3     0.0     0.3    0.00    4.99      0.1     0.2     0.3     0.0    5.71    2.65     0.0    1.5    0.0    0.00    0.02
 1999 258    26    23     0.3     0.0     0.3    0.00    4.95      0.1     0.2     0.3     0.0    5.71    2.65     0.0    1.5    0.0    0.00    0.02
 1999 259    27    24     0.4     0.0     0.4    0.00    4.91      0.1     0.3     0.3     0.1    5.71    2.65     0.0    1.5    0.0    0.00    0.02
 1999 260    28    25     0.4     0.0     0.4    0.00    4.87      0.1     0.3     0.3     0.1    5.72    2.65     0.0    1.5    0.0    0.00    0.02
 1999 261    29    26     0.4     0.0     0.4    0.00    4.82      0.1     0.4     0.4     0.1    5.72    2.65     0.0    1.5    0.0    0.00    0.02
 1999 262    30    27     0.5     0.0     0.5    0.00    4.87      0.1     0.4     0.4     0.1    5.72    2.66     0.0    1.5    0.0    0.00    0.02
 1999 263    31    28     0.5     0.0     0.5    0.00    4.89      0.1     0.5     0.5     0.1    5.72    2.66     0.0    1.5    0.0    0.00    0.03
 1999 264    32    29     0.6     0.0     0.6    0.00    4.91      0.1     0.6     0.5     0.1    5.72    2.66     0.0    1.5    0.0    0.00    0.03
 1999 265    33    30     0.6     0.0     0.6    0.00    4.92      0.1     0.6     0.6     0.1    5.72    2.66     0.0    1.5    0.0    0.00    0.03
 1999 266    34    31     0.7     0.0     0.7    0.00    4.91      0.1     0.7     0.6     0.1    5.72    2.66     0.0    1.5    0.0    0.00    0.03
 1999 267    35    32     0.8     0.0     0.8    0.00    4.90      0.1     0.8     0.7     0.1    5.72    2.66     0.0    1.5    0.0    0.00    0.03
 1999 268    36    33     0.8     0.0     0.8    0.00    4.90      0.1     0.8     0.7     0.1    5.72    2.66     0.0    1.5    0.0    0.00    0.03
 1999 269    37    34     0.8     0.0     0.8    0.00    4.90      0.1     0.9     0.7     0.1    5.72    2.66     0.0    1.5    0.0    0.00    0.04
 1999 270    38    35     0.9     0.0     0.9    0.00    4.91      0.1     1.0     0.8     0.1    5.72    2.66     0.0    1.5    0.0    0.00    0.04
 1999 271    39    36     1.0     0.0     1.0    0.00    4.91      0.1     1.1     0.8     0.1    5.72    2.66     0.0    1.5    0.0    0.00    0.04
 1999 272    40    37     1.1     0.0     1.1    0.00    4.91      0.1     1.2     0.9     0.2    5.72    2.66     0.0    1.5    0.0    0.00    0.04
 1999 273    41    38     1.1     0.0     1.1    0.00    4.88      0.1     1.3     1.0     0.2    5.72    2.66     0.0    1.5    0.0    0.00    0.04
 1999 274    42    39     1.2     0.0     1.2    0.00    4.89      0.1     1.3     1.0     0.2    5.72    2.66     0.0    1.5    0.0    0.00    0.05
 1999 275    43    40     1.3     0.0     1.3    0.00    4.88      0.1     1.4     1.1     0.2    5.72    2.66     0.0    1.5    0.0    0.00    0.05
 1999 276    44    41     1.3     0.0     1.3    0.00    4.86      0.1     1.5     1.1     0.2    5.72    2.66     0.0    1.5    0.0    0.00    0.05
 1999 277    45    42     1.4     0.0     1.4    0.00    4.85      0.1     1.5     1.1     0.2    5.72    2.66     0.0    1.5    0.0    0.00    0.05
 1999 278    46    43     1.4     0.0     1.4    0.00    4.85      0.1     1.6     1.2     0.2    5.72    2.66     0.0    1.5    0.0    0.00    0.05
 1999 279    47    44     1.5     0.0     1.5    0.00    4.82      0.1     1.7     1.2     0.2    5.72    2.66     0.0    1.5    0.0    0.00    0.05
 1999 280    48    45     1.5     0.0     1.5    0.00    4.82      0.1     1.8     1.3     0.2    5.72    2.66     0.0    1.5    0.0    0.00    0.06
 1999 281    49    46     1.6     0.0     1.6    0.00    4.81      0.1     1.9     1.4     0.3    5.72    2.66     0.0    1.5    0.0    0.00    0.06
 1999 282    50    47     1.8     0.0     1.8    0.00    4.81      0.1     2.0     1.5     0.3    5.72    2.66     0.0    1.5    0.0    0.00    0.06
 1999 283    51    48     1.9     0.0     1.9    0.00    4.79      0.1     2.3     1.6     0.3    5.72    2.66     0.0    1.5    0.0    0.00    0.06
 1999 284    52    49     2.1     0.0     2.1    0.00    4.74      0.1     2.5     1.8     0.4    5.72    2.66     0.0    1.5    0.0    0.00    0.06
 1999 285    53    50     2.2     0.0     2.2    0.00    4.74      0.1     2.6     1.8     0.4    5.72    2.66     0.0    1.5    0.0    0.00    0.07
 1999 286    54    51     2.3     0.0     2.3    0.00    4.73      0.1     2.7     1.9     0.4    5.72    2.66     0.0    1.5    0.0    0.00    0.07
 1999 287    55    52     2.4     0.0     2.4    0.00    4.74      0.1     2.9     2.0     0.4    5.72    2.66     0.0    1.5    0.0    0.00    0.08
 1999 288    56    53     2.6     0.0     2.6    0.00    4.69      0.1     3.1     2.1     0.5    5.72    2.66     0.0    1.5    0.0    0.00    0.08
 1999 289    57    54     2.8     0.0     2.8    0.00    4.64      0.1     3.4     2.3     0.6    5.72    2.66     0.0    1.5    0.0    0.00    0.08
 1999 290    58    55     3.2     0.0     3.2    0.00    4.57      0.1     3.8     2.5     0.7    5.72    2.66     0.0    1.5    0.0    0.00    0.09
 1999 291    59    56     3.5     0.0     3.5    0.00    4.49      0.2     4.3     2.7     0.8    5.72    2.66     0.0    1.5    0.0    0.00    0.09
 1999 292    60    57     3.9     0.0     3.9    0.00    4.42      0.2     4.8     2.9     1.0    5.72    2.66     0.0    1.5    0.0    0.00    0.10
 1999 293    61    58     4.3     0.0     4.3    0.00    4.34      0.2     5.3     3.1     1.2    5.73    2.66     0.0    1.5    0.0    0.00    0.10
 1999 294    62    59     4.9     0.0     4.9    0.00    4.35      0.2     6.0     3.6     1.3    5.73    2.66     0.0    1.5    0.0    0.00    0.11
 1999 295    63    60     5.4     0.0     5.4    0.00    4.36      0.2     6.6     4.0     1.5    5.72    2.66     0.0    1.5    0.0    0.00    0.12
 1999 296    64    61     6.0     0.0     6.0    0.00    4.37      0.2     7.2     4.4     1.6    5.72    2.66     0.0    1.5    0.0    0.00    0.12
 1999 297    65    62     6.5     0.0     6.5    0.00    4.37      0.2     7.9     4.8     1.8    5.72    2.66     0.0    1.5    0.0    0.00    0.13
 1999 298    66    63     7.2     0.0     7.2    0.00    4.37      0.3     8.6     5.3     1.9    5.72    2.66     0.0    1.5    0.0    0.00    0.14
 1999 299    67    64     8.3     0.0     8.3    0.00    4.37      0.3     9.8     6.0     2.2    5.72    2.66     0.0    1.5    0.0    0.00    0.14
 1999 300    68    65     9.4     0.0     9.4    0.00    4.37      0.3    11.2     6.9     2.6    5.72    2.66     0.0    1.5    0.0    0.00    0.16
 1999 301    69    66    10.7     0.0    10.7    0.00    4.36      0.3    12.6     7.8     2.9    5.72    2.66     0.0    1.5    0.0    0.00    0.17
 1999 302    70    67    12.2     0.0    12.2    0.00    4.35      0.4    14.4     8.9     3.3    5.72    2.66     0.0    1.5    0.0    0.00    0.18
 1999 303    71    68    13.5     0.0    13.5    0.00    4.35      0.4    15.9     9.8     3.7    5.72    2.66     0.0    1.5    0.0    0.00    0.20
 1999 304    72    69    15.3     0.0    15.3    0.00    4.33      0.4    17.9    11.0     4.3    5.72    2.66     0.0    1.5    0.0    0.00    0.21
 1999 305    73    70    16.5     0.0    16.5    0.00    4.33      0.5    19.4    11.9     4.6    5.72    2.66     0.0    1.5    0.0    0.00    0.23
 1999 306    74    71    18.9     0.0    18.9    0.00    4.31      0.5    22.1    13.5     5.4    5.72    2.66     0.0    1.5    0.0    0.00    0.24
 1999 307    75    72    21.4     0.0    21.4    0.00    4.29      0.6    25.0    15.2     6.2    5.72    2.66     0.0    1.5    0.0    0.00    0.26
 1999 308    76    73    22.3     0.0    22.3    0.00    4.28      0.6    26.0    15.8     6.5    5.72    2.65     0.0    1.5    0.0    0.00    0.28
 1999 309    77    74    24.9     0.0    24.9    0.00    4.26      0.6    29.0    17.6     7.3    5.71    2.64     0.0    1.5    0.0    0.00    0.30
 1999 310    78    75    28.2     0.0    28.2    0.00    4.23      0.7    32.9    19.8     8.4    5.70    2.63     0.0    1.5    0.0    0.01    0.32
 1999 311    79    76    30.3     0.0    30.3    0.00    4.22      0.7    35.3    21.2     9.1    5.70    2.63     0.0    1.5    0.0    0.01    0.34
 1999 312    80    77    32.6     0.0    32.6    0.00    4.21      0.8    38.1    22.8     9.9    5.70    2.62     0.0    1.5    0.0    0.03    0.35
 1999 313    81    78    34.8     0.0    34.8    0.00    4.20      0.8    40.8    24.2    10.6    5.71    2.62     0.0    1.5    0.0    0.04    0.36
 1999 314    82    79    37.4     0.0    37.4    0.00    4.19      0.9    43.9    25.9    11.5    5.71    2.62     0.0    1.5    0.0    0.06    0.37
 1999 315    83    80    41.0     0.0    41.0    0.00    4.17      0.9    48.2    28.3    12.7    5.71    2.61     0.0    1.5    0.0    0.09    0.40
 1999 316    84    81    45.2     0.0    45.2    0.00    4.16      1.0    53.2    31.0    14.2    5.72    2.60     0.0    1.5    0.0    0.12    0.43
 1999 317    85    82    49.4     0.0    49.4    0.00    4.14      1.1    58.1    33.7    15.7    5.73    2.60     0.0    1.5    0.0    0.18    0.47
 1999 318    86    83    53.3     0.0    53.3    0.00    4.11      1.2    62.6    36.2    17.1    5.71    2.57     0.0    1.5    0.0    0.26    0.51
 1999 319    87    84    57.7     0.0    57.7    0.00    4.06      2.4    66.6    39.0    18.7    5.69    2.54     0.0    1.5    1.1    0.32    0.56
 1999 320    88    85    61.8     0.0    61.8    0.00    3.98      3.8    70.1    41.6    20.2    5.62    2.49     0.0    1.5    1.2    0.37    0.62
 1999 321    89    86    65.5     0.0    65.5    0.00    3.90      5.4    73.1    43.9    21.6    5.54    2.44     0.0    1.5    1.4    0.42    0.67
 1999 322    90    87    69.0     0.0    68.9    0.00    3.80      7.4    75.4    46.0    22.9    5.43    2.37     4.0    1.4    1.6    0.48    0.74
 1999 323    91    88    72.5     0.0    72.1    0.00    3.73      9.6    77.5    47.9    24.2    5.36    2.32     4.0    1.4    1.9    0.55    0.80
 1999 324    92    89    76.0     0.0    75.2    0.00    3.66     12.2    79.4    49.8    25.4    5.30    2.28     4.0    1.4    2.2    0.61    0.87
 1999 325    93    90    79.7     0.0    78.4    0.00    3.56     15.3    80.9    51.9    26.5    5.21    2.20     4.0    1.4    2.6    0.68    0.95
 1999 326    94    91    83.6     0.0    81.7    0.00    3.48     18.8    82.4    53.9    27.8    5.12    2.14     4.0    1.3    3.0    0.74    1.02
 1999 327    95    92    86.9     0.0    84.2    0.00    3.45     21.4    83.6    55.3    28.9    5.11    2.13     3.9    1.3    2.6    0.80    1.09
 1999 328    96    93    91.0     0.0    87.4    0.00    3.41     25.4    84.7    57.2    30.2    5.07    2.11     3.9    1.3    3.5    0.87    1.19
 1999 329    97    94    95.6     0.0    91.1    0.00    3.40     26.9    88.5    59.4    31.8    5.07    2.10     3.9    1.3    1.5    0.93    1.27
 1999 330    98    95    97.8     0.0    92.1    0.00    3.37     27.4    90.3    59.9    32.2    5.04    2.08     3.9    1.3    0.5    1.00    1.34
 1999 331    99    96   102.3     0.0    95.4    0.00    3.34     31.6    91.4    61.8    33.7    5.02    2.07     3.9    1.3    4.0    1.07    1.43
 1999 332   100    97   107.0     0.0    98.6    0.00    3.30     36.4    92.4    63.6    35.1    4.98    2.05     3.9    1.3    4.2    1.15    1.52
 1999 333   101    98   111.8     0.0   101.8    0.00    3.27     41.4    93.0    65.3    36.5    4.96    2.03     3.9    1.3    4.8    1.23    1.63
 1999 334   102    99   115.2     0.0   103.4    0.00    3.23     45.5    93.5    66.2    37.3    4.93    2.00     3.9    1.3    4.0    1.32    1.84
 1999 335   103   100   118.5     0.0   104.5    0.00    3.19     48.7    93.9    66.7    37.8    4.89    1.98     3.9    1.3    3.2    1.41    2.00
 1999 336   104   101   120.2     0.0   103.6    0.00    3.15     49.3    95.0    66.1    37.5    4.85    1.95     3.8    1.3    0.6    1.47    2.10
 1999 337   105   102   124.4     0.0   105.2    0.00    3.13     53.1    95.8    67.0    38.2    4.84    1.94     3.8    1.3    3.8    1.54    2.20
 1999 338   106   103   129.5     0.0   107.5    0.00    3.10     58.0    96.4    68.1    39.3    4.81    1.92     3.8    1.3    4.9    1.63    2.32
 1999 339   107   104   132.1     0.0   107.2    0.00    3.08     60.3    96.8    68.0    39.3    4.79    1.90     3.8    1.3    2.3    1.68    2.41
 1999 340   108   105   136.7     0.0   109.3    0.00    3.07     64.8    97.4    69.1    40.3    4.78    1.90     3.8    1.3    4.4    1.73    2.49
 1999 341   109   106   140.5     0.0   110.6    0.00    3.05     68.6    97.7    69.7    40.9    4.76    1.89     3.8    1.3    3.7    1.78    2.59
 1999 342   110   107   143.6     0.0   110.9    0.00    3.00     72.1    98.1    69.9    41.0    4.73    1.85     3.8    1.3    3.4    1.85    2.83
 1999 343   111   108   144.9     0.0   110.1    0.00    2.95     74.4    98.4    69.4    40.8    4.67    1.81     3.8    1.3    2.2    2.65    3.14
 1999 344   112   109   144.4     0.1   108.2    6.23    2.88     75.1    98.7    68.2    40.0    4.61    1.75     3.8    1.3    0.7    4.24    3.54
 1999 345   113   110   144.6     0.3   106.3    6.27    2.82     76.2    98.8    67.0    39.3    4.55    1.71     3.7    1.2    1.0    5.26    3.93
 1999 346   114   111   145.5     0.7   104.9    6.25    2.79     78.5    99.3    66.0    38.8    4.52    1.69     3.7    1.2    2.2    6.98    4.20
 1999 347   115   112   146.1     1.2   103.1    6.22    2.75     81.4    99.6    64.8    38.4    4.48    1.66     3.7    1.2    2.8    9.47    4.35
 1999 348   116   113   146.9     1.8   100.9    6.21    2.68     85.9    99.8    62.9    38.0    4.42    1.62     3.7    1.2    3.7   12.45    4.51
 1999 349   117   114   145.7     2.5    97.2    6.25    2.60     86.9   100.1    60.3    36.9    4.36    1.57     3.6    1.2    1.0   15.05    4.93
 1999 350   118   115   145.3     3.3    95.2    6.26    2.55     87.6   100.2    59.0    36.2    4.30    1.53     3.6    1.2    0.7   16.34    5.37
 1999 351   119   116   144.3     4.2    93.2    6.28    2.52     87.7   100.4    57.8    35.4    4.26    1.51     3.6    1.2    0.0   17.64    5.87
 1999 352   120   117   143.2     5.2    91.2    6.33    2.49     87.7   100.5    56.6    34.6    4.23    1.49     3.5    1.2    0.0   19.06    6.45
 1999 353   121   118   139.8     6.5    87.5    6.35    2.46     87.7   100.6    54.0    33.5    4.19    1.47     3.5    1.2    0.0   22.65    7.01
 1999 354   122   119   136.3     7.9    83.6    6.32    2.42     87.7   100.8    51.3    32.4    4.15    1.45     3.4    1.2    0.0   26.36    7.53
 1999 355   123   120   131.9     9.5    79.2    6.33    2.37     87.7   100.9    48.0    31.2    4.10    1.43     3.4    1.2    0.0   30.87    8.03
 1999 356   124   121   127.4    11.4    75.3    6.31    2.32     87.7   100.9    45.2    30.1    4.06    1.41     3.3    1.2    0.0   35.49    8.51
 1999 357   125   122   123.2    13.4    71.3    6.29    2.27     87.7   101.1    42.3    29.0    4.02    1.39     3.3    1.2    0.0   39.88    8.95
 1999 358   126   123   120.2    15.7    67.6    6.30    2.23     87.7   101.2    39.6    28.0    3.98    1.37     3.2    1.1    0.0   43.09    9.39
 1999 359   127   124   116.8    17.1    64.8    6.34    2.20     87.7   101.2    37.5    27.3    3.96    1.37     3.2    1.1    0.0   46.48    9.82
 1999 360   128   125   112.5    18.2    62.0    6.39    2.18     87.7   101.2    35.4    26.6    3.95    1.36     3.2    1.1    0.0   50.78   10.23
 1999 361   129   126   109.9    19.2    59.5    6.43    2.15     87.7   101.2    33.4    26.0    3.94    1.36     3.1    1.1    0.0   53.48   10.64
 1999 362   130   127   107.2    22.6    55.5    6.39    2.08     87.7   101.3    30.8    24.8    3.87    1.32     3.0    1.1    0.0   56.38   10.92
 1999 363   131   128   104.8    25.7    51.8    6.37    2.01     87.7   101.3    28.2    23.6    3.80    1.29     2.9    1.1    0.0   58.91   11.28
 1999 364   132   129   102.6    28.8    48.4    6.35    1.95     87.7   101.3    25.9    22.5    3.72    1.25     2.8    1.1    0.0   61.31   11.62
 1999 365   133   130   100.7    30.2    46.0    6.35    1.91     87.7   101.3    24.2    21.8    3.69    1.24     2.8    1.1    0.0   63.24   11.95
 2000 001   134   131   100.3    31.5    45.2    6.34    1.89     87.7   101.3    23.8    21.4    3.66    1.23     2.7    1.1    0.0   63.70   12.26
 2000 002   135   132   100.1    32.7    44.4    6.34    1.87     87.7   101.3    23.4    21.0    3.64    1.22     2.7    1.1    0.0   63.96   12.56
 2000 003   136   133    99.9    33.6    43.8    6.34    1.86     87.7   101.3    23.1    20.8    3.62    1.21     2.7    1.1    0.0   64.12   12.85
 2000 004   137   134   100.0    34.7    43.2    6.33    1.85     87.7   101.3    22.7    20.4    3.59    1.20     2.6    1.1    0.0   64.16   13.13
 2000 005   138   135   100.0    35.3    42.7    6.33    1.84     87.7   101.3    22.5    20.2    3.58    1.20     2.6    1.1    0.0   64.18   13.40
 2000 006   139   136   100.0    35.8    42.5    6.33    1.84     87.7   101.3    22.4    20.1    3.58    1.20     2.6    1.1    0.0   64.19   13.66
 2000 007   140   137   100.0    35.9    42.4    6.34    1.85     87.7   101.3    22.3    20.1    3.59    1.20     2.6    1.1    0.0   64.19   13.92
 2000 008   141   138   100.0    35.9    42.4    6.34    1.86     87.7   101.3    22.3    20.1    3.60    1.21     2.6    1.1    0.0   64.19   14.17
 2000 009   142   139   100.0    35.9    42.4    6.34    1.87     87.7   101.3    22.3    20.1    3.61    1.22     2.6    1.1    0.0   64.19   14.41
 2000 010   143   140   100.0    36.1    42.3    6.34    1.87     87.7   101.3    22.3    20.0    3.61    1.22     2.6    1.1    0.0   64.20   14.65
 2000 011   144   141   100.0    36.1    42.3    6.34    1.88     87.7   101.3    22.3    20.0    3.62    1.23     2.6    1.1    0.0   64.20   14.87
 2000 012   145   142   100.0    36.1    42.3    6.34    1.89     87.7   101.3    22.3    20.0    3.63    1.23     2.6    1.1    0.0   64.20   15.09
 2000 013   146   143    94.6    36.1    36.9    6.34    1.82     87.7   101.3    17.8    19.1    3.64    1.24     2.6    1.1    0.0   69.53   15.30
 2000 014   147   144    90.4    38.1    31.5    6.33    1.70     87.7   101.3    13.7    17.8    3.55    1.21     2.5    1.1    0.0   73.79   15.47
 2000 015   148   145    88.7    41.8    27.1    6.35    1.57     87.7   102.8    10.5    16.6    3.44    1.17     2.4    1.1    0.0   77.08   15.65
 2000 016   149   146    87.2    44.6    23.6    6.37    1.46     87.7   103.8     8.1    15.6    3.34    1.13     2.3    1.0    0.0   79.60   15.82
 2000 017   150   147    85.3    45.9    21.1    6.37    1.38     87.7   103.8     6.3    14.8    3.27    1.11     2.2    1.0    0.0   81.53   15.97
 2000 018   151   148    84.4    47.8    18.9    6.35    1.29     87.7   104.3     4.8    14.1    3.18    1.08     2.2    1.0    0.0   83.02   16.08
 2000 019   152   149    83.5    49.5    17.1    6.35    1.22     87.7   104.6     3.7    13.4    3.09    1.05     2.1    1.0    0.0   84.17   16.22
 2000 020   153   150    82.7    50.6    15.7    6.36    1.16     87.7   104.6     2.9    12.9    3.02    1.02     2.0    1.0    0.0   85.06   16.36
 2000 021   154   151    82.0    51.0    14.9    6.36    1.13     87.7   104.6     2.3    12.6    3.00    1.01     2.0    1.0    0.0   85.75   16.49
 2000 022   155   152    81.4    51.0    14.4    6.36    1.11     87.7   104.6     1.8    12.5    3.00    1.02     2.0    1.0    0.0   86.29   16.63
 2000 023   156   153    81.0    51.2    13.8    6.36    1.09     87.7   104.6     1.4    12.4    2.99    1.01     2.0    1.0    0.0   86.73   16.75
 2000 024   157   154    80.7    51.2    13.5    6.36    1.08     87.7   104.6     1.2    12.3    2.99    1.01     2.0    1.0    0.0   87.07   16.87

*DSSAT Cropping System Model Ver. 4.0.2.000               Aug 23, 2016; 20:22:27

*RUN   2        : UYSB                    
 MODEL          : CRGRO040 - Soybean         
 EXPERIMENT     : UYSB0397 SB    late to create DSS                             
 TREATMENT  1   : UYSB                    

@YEAR DOY   DAS   DAP    CNAD    GNAD    VNAD    GN%D    VN%D     NFXC    NUPC    LNAD    SNAD    LN%D    SN%D    SHND   RN%D   NFXD   SNN0C   SNN1C
 2000 235     3     0     0.0     0.0     0.0    0.00    0.00      0.0     0.0     0.0     0.0    0.00    0.00     0.0    0.0    0.0    0.00    0.00
 2000 236     4     1     0.0     0.0     0.0    0.00    0.00      0.0     0.0     0.0     0.0    0.00    0.00     0.0    0.0    0.0    0.00    0.00
 2000 237     5     2     0.0     0.0     0.0    0.00    0.00      0.0     0.0     0.0     0.0    0.00    0.00     0.0    0.0    0.0    0.00    0.00
 2000 238     6     3     0.0     0.0     0.0    0.00    0.00      0.0     0.0     0.0     0.0    0.00    0.00     0.0    0.0    0.0    0.00    0.00
 2000 239     7     4     0.0     0.0     0.0    0.00    0.00      0.0     0.0     0.0     0.0    0.00    0.00     0.0    0.0    0.0    0.00    0.00
 2000 240     8     5     0.0     0.0     0.0    0.00    0.00      0.0     0.0     0.0     0.0    0.00    0.00     0.0    0.0    0.0    0.00    0.00
 2000 241     9     6     0.0     0.0     0.0    0.00    0.00      0.0     0.0     0.0     0.0    0.00    0.00     0.0    0.0    0.0    0.00    0.00
 2000 242    10     7     0.0     0.0     0.0    0.00    0.00      0.0     0.0     0.0     0.0    0.00    0.00     0.0    0.0    0.0    0.00    0.00
 2000 243    11     8     0.0     0.0     0.0    0.00    0.00      0.0     0.0     0.0     0.0    0.00    0.00     0.0    0.0    0.0    0.00    0.00
 2000 244    12     9     0.0     0.0     0.0    0.00    0.00      0.0     0.0     0.0     0.0    0.00    0.00     0.0    0.0    0.0    0.00    0.00
 2000 245    13    10     0.2     0.0     0.2    0.00    5.15      0.0     0.0     0.2     0.0    5.70    2.64     0.0    1.5    0.0    0.00    0.00
 2000 246    14    11     0.2     0.0     0.2    0.00    5.15      0.0     0.0     0.2     0.0    5.70    2.64     0.0    1.5    0.0    0.00    0.01
 2000 247    15    12     0.2     0.0     0.2    0.00    5.14      0.0     0.0     0.2     0.0    5.70    2.64     0.0    1.5    0.0    0.00    0.01
 2000 248    16    13     0.2     0.0     0.2    0.00    5.13      0.0     0.0     0.2     0.0    5.70    2.64     0.0    1.5    0.0    0.00    0.01
 2000 249    17    14     0.2     0.0     0.2    0.00    5.12      0.0     0.1     0.2     0.0    5.70    2.64     0.0    1.5    0.0    0.00    0.01
 2000 250    18    15     0.2     0.0     0.2    0.00    5.11      0.0     0.1     0.2     0.0    5.70    2.64     0.0    1.5    0.0    0.00    0.01
 2000 251    19    16     0.3     0.0     0.3    0.00    5.09      0.1     0.1     0.2     0.0    5.70    2.65     0.0    1.5    0.0    0.00    0.01
 2000 252    20    17     0.3     0.0     0.3    0.00    5.06      0.1     0.1     0.3     0.0    5.71    2.65     0.0    1.5    0.0    0.00    0.01
 2000 253    21    18     0.3     0.0     0.3    0.00    5.05      0.1     0.2     0.3     0.0    5.71    2.65     0.0    1.5    0.0    0.00    0.02
 2000 254    22    19     0.3     0.0     0.3    0.00    5.03      0.1     0.2     0.3     0.0    5.71    2.65     0.0    1.5    0.0    0.00    0.02
 2000 255    23    20     0.3     0.0     0.3    0.00    5.01      0.1     0.2     0.3     0.0    5.71    2.65     0.0    1.5    0.0    0.00    0.02
 2000 256    24    21     0.3     0.0     0.3    0.00    5.00      0.1     0.2     0.3     0.0    5.71    2.65     0.0    1.5    0.0    0.00    0.02
 2000 257    25    22     0.3     0.0     0.3    0.00    5.00      0.1     0.2     0.3     0.0    5.71    2.65     0.0    1.5    0.0    0.00    0.02
 2000 258    26    23     0.3     0.0     0.3    0.00    5.00      0.1     0.2     0.3     0.0    5.71    2.65     0.0    1.5    0.0    0.00    0.03
 2000 259    27    24     0.4     0.0     0.4    0.00    5.00      0.1     0.2     0.3     0.0    5.71    2.65     0.0    1.5    0.0    0.00    0.03
 2000 260    28    25     0.4     0.0     0.4    0.00    4.98      0.1     0.3     0.3     0.0    5.72    2.66     0.0    1.5    0.0    0.00    0.03
 2000 261    29    26     0.4     0.0     0.4    0.00    4.96      0.1     0.3     0.3     0.1    5.72    2.66     0.0    1.5    0.0    0.00    0.03
 2000 262    30    27     0.4     0.0     0.4    0.00    4.95      0.1     0.3     0.3     0.1    5.72    2.66     0.0    1.5    0.0    0.00    0.03
 2000 263    31    28     0.4     0.0     0.4    0.00    4.91      0.1     0.3     0.4     0.1    5.72    2.66     0.0    1.5    0.0    0.00    0.03
 2000 264    32    29     0.4     0.0     0.4    0.00    4.94      0.1     0.4     0.4     0.1    5.72    2.66     0.0    1.5    0.0    0.00    0.03
 2000 265    33    30     0.5     0.0     0.5    0.00    4.97      0.1     0.4     0.4     0.1    5.72    2.66     0.0    1.5    0.0    0.00    0.04
 2000 266    34    31     0.5     0.0     0.5    0.00    4.99      0.1     0.5     0.5     0.1    5.72    2.66     0.0    1.5    0.0    0.00    0.04
 2000 267    35    32     0.6     0.0     0.6    0.00    4.99      0.1     0.5     0.5     0.1    5.72    2.66     0.0    1.5    0.0    0.00    0.04
 2000 268    36    33     0.6     0.0     0.6    0.00    4.99      0.1     0.6     0.5     0.1    5.72    2.66     0.0    1.5    0.0    0.00    0.04
 2000 269    37    34     0.6     0.0     0.6    0.00    4.99      0.1     0.6     0.6     0.1    5.72    2.66     0.0    1.5    0.0    0.00    0.04
 2000 270    38    35     0.7     0.0     0.7    0.00    4.99      0.1     0.7     0.6     0.1    5.72    2.66     0.0    1.5    0.0    0.00    0.04
 2000 271    39    36     0.7     0.0     0.7    0.00    4.96      0.1     0.7     0.6     0.1    5.72    2.66     0.0    1.5    0.0    0.00    0.04
 2000 272    40    37     0.8     0.0     0.8    0.00    4.92      0.1     0.8     0.7     0.1    5.72    2.66     0.0    1.5    0.0    0.00    0.04
 2000 273    41    38     0.9     0.0     0.9    0.00    4.89      0.1     1.0     0.8     0.1    5.72    2.66     0.0    1.5    0.0    0.00    0.04
 2000 274    42    39     1.0     0.0     1.0    0.00    4.87      0.1     1.1     0.8     0.2    5.72    2.66     0.0    1.5    0.0    0.00    0.04
 2000 275    43    40     1.1     0.0     1.1    0.00    4.84      0.1     1.2     0.9     0.2    5.72    2.66     0.0    1.5    0.0    0.00    0.05
 2000 276    44    41     1.1     0.0     1.1    0.00    4.84      0.1     1.3     1.0     0.2    5.72    2.66     0.0    1.5    0.0    0.00    0.05
 2000 277    45    42     1.2     0.0     1.2    0.00    4.82      0.1     1.4     1.0     0.2    5.72    2.66     0.0    1.5    0.0    0.00    0.05
 2000 278    46    43     1.3     0.0     1.3    0.00    4.80      0.1     1.5     1.1     0.2    5.72    2.66     0.0    1.5    0.0    0.00    0.05
 2000 279    47    44     1.4     0.0     1.4    0.00    4.76      0.1     1.7     1.2     0.3    5.72    2.66     0.0    1.5    0.0    0.00    0.06
 2000 280    48    45     1.5     0.0     1.5    0.00    4.73      0.1     1.8     1.3     0.3    5.72    2.66     0.0    1.5    0.0    0.00    0.06
 2000 281    49    46     1.7     0.0     1.7    0.00    4.72      0.1     2.0     1.4     0.3    5.72    2.66     0.0    1.5    0.0    0.00    0.06
 2000 282    50    47     1.9     0.0     1.9    0.00    4.70      0.1     2.2     1.5     0.4    5.72    2.66     0.0    1.5    0.0    0.00    0.06
 2000 283    51    48     2.0     0.0     2.0    0.00    4.71      0.1     2.3     1.6     0.4    5.72    2.66     0.0    1.5    0.0    0.00    0.07
 2000 284    52    49     2.2     0.0     2.2    0.00    4.69      0.1     2.5     1.7     0.4    5.72    2.66     0.0    1.5    0.0    0.00    0.07
 2000 285    53    50     2.3     0.0     2.3    0.00    4.65      0.1     2.8     1.9     0.5    5.72    2.66     0.0    1.5    0.0    0.00    0.07
 2000 286    54    51     2.6     0.0     2.6    0.00    4.59      0.1     3.1     2.0     0.6    5.72    2.66     0.0    1.5    0.0    0.00    0.07
 2000 287    55    52     2.8     0.0     2.8    0.00    4.54      0.1     3.4     2.2     0.6    5.72    2.66     0.0    1.5    0.0    0.00    0.08
 2000 288    56    53     2.9     0.0     2.9    0.00    4.54      0.1     3.6     2.3     0.7    5.72    2.66     0.0    1.5    0.0    0.00    0.08
 2000 289    57    54     3.1     0.0     3.1    0.00    4.53      0.1     3.7     2.4     0.7    5.72    2.66     0.0    1.5    0.0    0.00    0.09
 2000 290    58    55     3.3     0.0     3.3    0.00    4.50      0.2     4.0     2.5     0.8    5.73    2.66     0.0    1.5    0.0    0.00    0.09
 2000 291    59    56     3.5     0.0     3.5    0.00    4.46      0.2     4.3     2.6     0.9    5.73    2.66     0.0    1.5    0.0    0.00    0.10
 2000 292    60    57     3.7     0.0     3.7    0.00    4.43      0.2     4.5     2.7     0.9    5.73    2.66     0.0    1.5    0.0    0.00    0.10
 2000 293    61    58     3.9     0.0     3.9    0.00    4.38      0.2     4.8     2.9     1.0    5.73    2.66     0.0    1.5    0.0    0.00    0.11
 2000 294    62    59     4.2     0.0     4.2    0.00    4.39      0.2     5.1     3.1     1.1    5.73    2.66     0.0    1.5    0.0    0.00    0.11
 2000 295    63    60     4.8     0.0     4.8    0.00    4.39      0.2     5.8     3.5     1.3    5.73    2.66     0.0    1.5    0.0    0.00    0.12
 2000 296    64    61     5.1     0.0     5.1    0.00    4.39      0.2     6.2     3.8     1.4    5.73    2.66     0.0    1.5    0.0    0.00    0.13
 2000 297    65    62     5.4     0.0     5.4    0.00    4.39      0.2     6.5     4.0     1.4    5.73    2.66     0.0    1.5    0.0    0.00    0.13
 2000 298    66    63     5.8     0.0     5.8    0.00    4.39      0.2     6.9     4.2     1.5    5.73    2.67     0.0    1.5    0.0    0.00    0.14
 2000 299    67    64     6.4     0.0     6.4    0.00    4.39      0.2     7.7     4.7     1.7    5.73    2.67     0.0    1.5    0.0    0.00    0.15
 2000 300    68    65     7.1     0.0     7.1    0.00    4.36      0.2     8.4     5.2     1.9    5.70    2.65     0.0    1.5    0.0    0.00    0.16
 2000 301    69    66     8.3     0.0     8.3    0.00    4.35      0.3     9.9     6.0     2.2    5.70    2.65     0.0    1.5    0.0    0.00    0.17
 2000 302    70    67     9.3     0.0     9.3    0.00    4.34      0.3    11.1     6.8     2.5    5.70    2.65     0.0    1.5    0.0    0.00    0.18
 2000 303    71    68    10.3     0.0    10.3    0.00    4.33      0.3    12.2     7.5     2.8    5.70    2.65     0.0    1.5    0.0    0.00    0.18
 2000 304    72    69    12.0     0.0    12.0    0.00    4.32      0.3    14.1     8.7     3.3    5.71    2.65     0.0    1.5    0.0    0.00    0.19
 2000 305    73    70    13.8     0.0    13.8    0.00    4.31      0.4    16.2     9.9     3.9    5.71    2.65     0.0    1.5    0.0    0.00    0.20
 2000 306    74    71    14.7     0.0    14.7    0.00    4.31      0.4    17.2    10.5     4.1    5.71    2.65     0.0    1.5    0.0    0.00    0.22
 2000 307    75    72    16.3     0.0    16.3    0.00    4.29      0.4    19.1    11.7     4.7    5.71    2.65     0.0    1.5    0.0    0.00    0.23
 2000 308    76    73    18.4     0.0    18.4    0.00    4.27      0.5    21.5    13.1     5.3    5.70    2.65     0.0    1.5    0.0    0.00    0.24
 2000 309    77    74    20.1     0.0    20.1    0.00    4.26      0.5    23.5    14.2     5.9    5.70    2.64     0.0    1.5    0.0    0.00    0.25
 2000 310    78    75    22.5     0.0    22.5    0.00    4.24      0.5    26.3    15.8     6.7    5.69    2.63     0.0    1.5    0.0    0.00    0.27
 2000 311    79    76    25.1     0.0    25.1    0.00    4.21      0.6    29.4    17.6     7.5    5.69    2.62     0.0    1.5    0.0    0.00    0.29
 2000 312    80    77    26.9     0.0    26.9    0.00    4.21      0.6    31.5    18.8     8.1    5.70    2.62     0.0    1.5    0.0    0.02    0.31
 2000 313    81    78    29.2     0.0    29.2    0.00    4.20      0.7    34.3    20.3     8.9    5.71    2.62     0.0    1.5    0.0    0.04    0.33
 2000 314    82    79    30.5     0.0    30.5    0.00    4.20      0.7    36.0    21.2     9.4    5.72    2.62     0.0    1.5    0.0    0.07    0.36
 2000 315    83    80    33.6     0.0    33.6    0.00    4.18      0.8    39.7    23.1    10.4    5.72    2.61     0.0    1.5    0.0    0.09    0.38
 2000 316    84    81    36.9     0.0    36.9    0.00    4.15      0.8    43.6    25.3    11.6    5.72    2.60     0.0    1.5    0.0    0.13    0.41
 2000 317    85    82    40.3     0.0    40.3    0.00    4.12      0.9    47.6    27.4    12.9    5.72    2.58     0.0    1.5    0.0    0.17    0.45
 2000 318    86    83    43.3     0.0    43.3    0.00    4.11      1.0    51.1    29.3    14.0    5.73    2.58     0.0    1.5    0.0    0.20    0.47
 2000 319    87    84    45.7     0.0    45.7    0.00    4.11      1.0    53.9    30.9    14.8    5.75    2.59     0.0    1.5    0.0    0.24    0.49
 2000 320    88    85    47.9     0.0    47.9    0.00    4.12      1.0    56.5    32.2    15.7    5.77    2.59     0.0    1.5    0.0    0.28    0.50
 2000 321    89    86    51.5     0.0    51.5    0.00    4.10      1.0    60.6    34.5    17.0    5.77    2.58     0.0    1.5    0.0    0.33    0.59
 2000 322    90    87    55.5     0.0    55.5    0.00    4.06      1.6    64.7    37.0    18.5    5.76    2.56     0.0    1.5    0.6    0.42    0.63
 2000 323    91    88    59.6     0.0    59.6    0.00    3.99      2.6    68.6    39.5    20.1    5.70    2.51     4.0    1.5    0.8    0.46    0.67
 2000 324    92    89    63.4     0.0    63.2    0.00    3.90      3.8    72.0    41.7    21.5    5.61    2.45     4.0    1.5    1.0    0.52    0.72
 2000 325    93    90    66.6     0.0    66.3    0.00    3.82      5.2    74.5    43.6    22.7    5.54    2.40     4.0    1.5    1.2    0.55    0.76
 2000 326    94    91    69.9     0.0    69.3    0.00    3.71      6.8    76.8    45.6    23.7    5.43    2.30     4.0    1.4    1.4    0.60    0.80
 2000 327    95    92    73.3     0.0    72.5    0.00    3.64      8.6    79.2    47.5    25.0    5.36    2.26     4.0    1.4    1.6    0.66    0.86
 2000 328    96    93    76.9     0.0    75.6    0.00    3.58     10.8    81.4    49.3    26.3    5.31    2.23     3.9    1.4    1.9    0.73    0.93
 2000 329    97    94    79.6     0.0    77.7    0.00    3.56     12.9    82.3    50.6    27.2    5.30    2.21     3.9    1.4    2.1    0.77    0.98
 2000 330    98    95    82.7     0.0    80.3    0.00    3.48     15.5    83.6    52.2    28.1    5.22    2.15     3.9    1.4    2.2    0.82    1.02
 2000 331    99    96    85.3     0.0    82.2    0.00    3.36     18.4    84.3    53.4    28.8    5.12    2.06     3.9    1.3    2.5    0.88    1.09
 2000 332   100    97    87.8     0.0    83.9    0.00    3.34     20.5    85.1    54.4    29.6    5.10    2.05     3.9    1.3    2.0    0.95    1.16
 2000 333   101    98    89.3     0.0    84.5    0.00    3.32     21.0    86.4    54.6    29.8    5.07    2.03     3.9    1.3    0.5    1.01    1.22
 2000 334   102    99    91.9     0.0    86.0    0.00    3.30     23.5    86.7    55.4    30.5    5.06    2.02     3.9    1.3    2.5    1.06    1.27
 2000 335   103   100    94.9     0.0    87.9    0.00    3.23     26.9    87.2    56.7    31.3    5.00    1.97     3.9    1.3    2.9    1.10    1.33
 2000 336   104   101    98.5     0.0    90.4    0.00    3.20     30.7    87.8    58.0    32.4    4.97    1.95     3.9    1.3    3.3    1.15    1.38
 2000 337   105   102   102.6     0.0    93.3    0.00    3.15     35.1    88.7    59.6    33.7    4.91    1.92     3.9    1.3    3.8    1.22    1.46
 2000 338   106   103   106.4     0.0    95.8    0.00    3.13     38.7    89.4    60.9    34.9    4.90    1.92     3.8    1.3    3.5    1.28    1.54
 2000 339   107   104   108.7     0.0    96.5    0.00    3.10     40.2    90.3    61.3    35.2    4.87    1.90     3.8    1.3    1.6    1.34    1.60
 2000 340   108   105   113.0     0.0    99.3    0.00    3.09     44.9    90.6    62.8    36.5    4.86    1.90     3.8    1.3    4.5    1.40    1.67
 2000 341   109   106   117.6     0.0   102.2    0.00    3.07     49.9    90.9    64.3    37.9    4.85    1.89     3.8    1.3    4.7    1.47    1.76
 2000 342   110   107   121.8     0.0   104.5    0.00    3.05     54.3    91.3    65.5    39.1    4.83    1.88     3.8    1.3    4.3    1.55    1.88
 2000 343   111   108   125.2     0.0   105.8    0.00    3.02     57.3    91.9    66.1    39.7    4.81    1.87     3.8    1.3    3.0    1.63    2.00
 2000 344   112   109   129.9     0.0   108.3    0.00    3.00     62.1    92.2    67.3    41.0    4.80    1.86     3.8    1.3    4.8    1.72    2.13
 2000 345   113   110   133.7     0.0   109.9    0.00    2.98     66.2    92.7    68.0    41.9    4.78    1.85     3.8    1.3    4.0    2.12    2.25
 2000 346   114   111   136.2     0.0   110.4    6.42    2.96     69.3    93.1    68.2    42.2    4.76    1.84     3.8    1.3    3.1    2.95    2.40
 2000 347   115   112   139.0     0.1   111.7    6.41    2.95     73.3    93.5    68.7    43.0    4.75    1.83     3.7    1.3    4.1    4.30    2.54
 2000 348   116   113   142.3     0.3   112.5    6.56    2.92     76.0    95.1    69.0    43.5    4.72    1.82     3.7    1.3    2.7    4.88    2.67
 2000 349   117   114   145.2     0.6   113.3    6.51    2.91     80.0    95.5    69.3    44.1    4.71    1.81     3.7    1.3    4.0    6.18    2.79
 2000 350   118   115   148.4     1.0   114.1    6.41    2.89     84.1    96.1    69.5    44.6    4.70    1.81     3.7    1.3    4.1    7.39    2.90
 2000 351   119   116   151.1     1.5   114.4    6.41    2.87     88.5    96.5    69.5    44.9    4.68    1.80     3.7    1.3    4.5    8.27    2.96
 2000 352   120   117   155.3     2.0   115.6    6.36    2.85     91.8    98.1    70.0    45.6    4.66    1.79     3.7    1.3    3.2    8.77    3.03
 2000 353   121   118   159.5     2.6   117.0    6.32    2.83     97.0    98.5    70.5    46.5    4.64    1.78     3.7    1.3    5.0    9.63    3.13
 2000 354   122   119   164.1     3.3   117.9    6.30    2.82    101.0    99.3    70.8    47.1    4.63    1.77     3.7    1.3    4.0    9.73    3.21
 2000 355   123   120   167.9     4.0   119.3    6.28    2.81    106.2    99.6    71.3    48.0    4.62    1.77     3.7    1.3    5.2   11.18    3.31
 2000 356   124   121   167.2     5.0   117.6    6.26    2.78    106.4   100.9    70.4    47.3    4.59    1.75     3.6    1.3    0.2   13.41    3.59
 2000 357   125   122   171.6     6.1   118.0    6.26    2.77    112.1   101.0    70.3    47.6    4.58    1.75     3.6    1.3    5.0   14.01    3.70
 2000 358   126   123   173.6     7.4   116.3    6.26    2.75    113.6   101.7    69.4    46.9    4.56    1.73     3.6    1.3    1.5   14.34    3.78
 2000 359   127   124   176.7     8.6   115.9    6.25    2.73    119.6   101.9    69.0    46.9    4.53    1.72     3.6    1.3    5.7   15.19    3.86
 2000 360   128   125   179.6    10.0   115.5    6.28    2.71    124.0   102.4    68.6    46.8    4.51    1.71     3.6    1.3    4.4   16.47    4.00
 2000 361   129   126   181.0    11.5   114.9    6.34    2.68    128.1   103.4    68.2    46.7    4.48    1.69     3.6    1.3    4.1   18.93    4.13
 2000 362   130   127   181.3    13.4   112.9    6.33    2.66    129.0   104.0    67.0    45.9    4.45    1.67     3.5    1.3    0.9   20.19    4.24
 2000 363   131   128   182.5    15.4   110.9    6.31    2.64    133.0   104.3    65.9    45.0    4.42    1.66     3.5    1.2    3.9   22.02    4.33
 2000 364   132   129   185.5    17.8   109.0    6.29    2.61    135.7   105.2    64.8    44.2    4.39    1.64     3.5    1.2    2.7   22.13    4.42
 2000 365   133   130   187.9    20.0   108.2    6.28    2.59    140.7   106.4    64.2    44.0    4.36    1.63     3.5    1.2    5.0   24.12    4.51
 2000 366   134   131   189.8    22.6   107.2    6.28    2.57    146.1   106.8    63.5    43.6    4.33    1.61     3.4    1.2    5.4   26.57    4.61
 2001 001   135   132   192.4    25.6   106.0    6.28    2.54    151.4   107.3    62.8    43.2    4.30    1.59     3.4    1.2    5.3   28.37    4.72
 2001 002   136   133   194.9    28.8   104.6    6.28    2.51    157.0   107.6    61.9    42.7    4.27    1.58     3.4    1.2    5.5   30.29    4.82
 2001 003   137   134   197.4    32.2   103.3    6.30    2.49    161.6   108.7    61.1    42.2    4.24    1.56     3.4    1.2    4.6   32.11    4.94
 2001 004   138   135   198.7    36.0   100.9    6.33    2.46    164.2   109.8    59.7    41.2    4.20    1.54     3.3    1.2    2.7   33.92    5.06
 2001 005   139   136   200.8    40.2    99.0    6.36    2.43    169.9   109.8    58.6    40.4    4.16    1.52     3.3    1.2    5.6   35.98    5.17
 2001 006   140   137   202.5    44.5    96.9    6.39    2.40    174.2   110.6    57.4    39.5    4.12    1.50     3.3    1.2    4.4   38.30    5.29
 2001 007   141   138   203.6    49.5    94.6    6.39    2.37    175.5   111.5    56.1    38.6    4.07    1.47     3.2    1.2    1.2   39.20    5.40
 2001 008   142   139   205.4    54.5    92.3    6.39    2.34    179.2   112.2    54.8    37.6    4.03    1.45     3.2    1.2    3.8   40.80    5.49
 2001 009   143   140   208.6    59.9    90.0    6.38    2.30    183.9   112.6    53.4    36.6    3.98    1.42     3.1    1.2    4.7   41.82    5.59
 2001 010   144   141   209.6    65.0    87.9    6.37    2.27    184.5   113.6    52.2    35.7    3.94    1.40     3.1    1.1    0.5   42.44    5.66
 2001 011   145   142   212.7    70.5    85.8    6.36    2.24    189.5   114.2    51.0    34.8    3.89    1.38     3.0    1.1    5.1   43.55    5.73
 2001 012   146   143   216.4    75.7    84.0    6.36    2.20    194.1   114.9    49.9    34.1    3.85    1.36     3.0    1.1    4.6   44.18    5.78
 2001 013   147   144   219.9    81.6    81.8    6.34    2.17    197.6   116.0    48.7    33.2    3.80    1.33     3.0    1.1    3.5   44.87    5.86
 2001 014   148   145   221.8    88.3    79.5    6.35    2.13    199.3   117.3    47.3    32.2    3.74    1.30     2.9    1.1    1.7   45.94    5.96
 2001 015   149   146   224.8    95.4    77.1    6.36    2.09    203.2   118.0    45.9    31.1    3.68    1.27     2.8    1.1    3.8   46.96    6.05
 2001 016   150   147   228.0   102.8    74.7    6.36    2.04    206.7   118.6    44.5    30.2    3.62    1.24     2.7    1.1    3.5   47.53    6.14
 2001 017   151   148   229.4   109.4    72.4    6.37    2.00    208.5   119.3    43.2    29.2    3.56    1.21     2.7    1.1    1.8   48.73    6.23
 2001 018   152   149   230.6   115.3    70.1    6.37    1.96    209.5   120.0    41.8    28.2    3.50    1.18     2.6    1.1    1.1   49.45    6.31
 2001 019   153   150   232.5   121.7    67.9    6.38    1.91    211.3   120.7    40.6    27.3    3.44    1.16     2.5    1.1    1.8   50.12    6.39
 2001 020   154   151   237.0   129.8    65.8    6.37    1.87    216.4   121.0    39.4    26.5    3.38    1.13     2.4    1.1    5.0   50.63    6.45
 2001 021   155   152   241.7   138.0    63.9    6.36    1.84    220.9   121.8    38.2    25.7    3.32    1.10     2.4    1.0    4.6   51.02    6.51
 2001 022   156   153   243.7   143.6    61.9    6.36    1.80    222.1   122.9    37.0    24.8    3.26    1.07     2.3    1.0    1.1   51.34    6.58
 2001 023   157   154   248.2   151.8    59.8    6.37    1.75    225.9   123.7    35.8    24.0    3.19    1.05     2.2    1.0    3.8   51.61    6.66
 2001 024   158   155   252.5   159.7    57.9    6.39    1.71    230.0   124.1    34.7    23.2    3.13    1.02     2.1    1.0    4.2   51.90    6.74
 2001 025   159   156   256.4   167.1    56.0    6.41    1.67    233.7   124.5    33.5    22.4    3.06    0.99     2.0    1.0    3.7   52.16    6.82
 2001 026   160   157   259.4   173.6    54.0    6.43    1.62    235.4   125.9    32.4    21.6    3.00    0.96     2.0    1.0    1.7   52.31    6.91
 2001 027   161   158   259.8   177.0    52.2    6.41    1.58    235.4   126.4    31.3    20.9    2.94    0.94     1.9    1.0    0.0   52.45    7.13
 2001 028   162   159   252.5   179.8    43.4    6.39    1.47    235.4   126.8    24.2    19.1    2.86    0.91     1.8    1.0    0.0   59.92    7.22
 2001 029   163   160   247.9   183.2    36.5    6.30    1.37    235.4   127.8    18.8    17.7    2.79    0.89     1.8    1.0    0.0   65.68    7.27
 2001 030   164   161   244.1   186.0    31.0    6.23    1.27    235.4   128.5    14.5    16.5    2.71    0.86     1.7    1.0    0.0   70.13    7.33
 2001 031   165   162   241.0   188.2    26.7    6.20    1.18    235.4   128.9    11.2    15.5    2.64    0.84     1.7    1.0    0.0   73.56    7.41
 2001 032   166   163   238.6   190.2    23.3    6.20    1.10    235.4   129.0     8.7    14.6    2.58    0.82     1.6    1.0    0.0   76.22    7.88
 2001 033   167   164   236.7   191.9    20.6    6.20    1.03    235.4   129.2     6.7    13.9    2.52    0.80     1.5    1.0    0.0   78.27    8.37
 2001 034   168   165   235.3   193.4    18.6    6.20    0.97    235.4   129.3     5.2    13.3    2.46    0.79     1.5    1.0    0.0   79.87    8.81
 2001 035   169   166   234.1   194.4    17.0    6.20    0.92    235.4   129.3     4.1    12.9    2.42    0.77     1.5    1.0    0.0   81.10    9.23
 2001 036   170   167   233.1   194.7    15.9    6.20    0.89    235.4   129.3     3.2    12.7    2.41    0.77     1.5    1.0    0.0   82.07    9.63
 2001 037   171   168   232.4   194.7    15.1    6.20    0.87    235.4   129.3     2.6    12.5    2.42    0.77     1.5    1.0    0.0   82.84   10.00
 2001 038   172   169   231.7   194.7    14.5    6.20    0.86    235.4   129.3     2.1    12.4    2.42    0.77     1.5    1.0    0.0   83.46   10.36
 2001 039   173   170   231.3   194.7    14.0    6.20    0.84    235.4   129.3     1.7    12.4    2.42    0.77     1.5    1.0    0.0   83.95   10.70

*DSSAT Cropping System Model Ver. 4.0.2.000               Aug 23, 2016; 20:22:27

*RUN   3        : UYSB                    
 MODEL          : CRGRO040 - Soybean         
 EXPERIMENT     : UYSB0397 SB    late to create DSS                             
 TREATMENT  1   : UYSB                    

@YEAR DOY   DAS   DAP    CNAD    GNAD    VNAD    GN%D    VN%D     NFXC    NUPC    LNAD    SNAD    LN%D    SN%D    SHND   RN%D   NFXD   SNN0C   SNN1C
 2001 235     3     0     0.0     0.0     0.0    0.00    0.00      0.0     0.0     0.0     0.0    0.00    0.00     0.0    0.0    0.0    0.00    0.00
 2001 236     4     1     0.0     0.0     0.0    0.00    0.00      0.0     0.0     0.0     0.0    0.00    0.00     0.0    0.0    0.0    0.00    0.00
 2001 237     5     2     0.0     0.0     0.0    0.00    0.00      0.0     0.0     0.0     0.0    0.00    0.00     0.0    0.0    0.0    0.00    0.00
 2001 238     6     3     0.0     0.0     0.0    0.00    0.00      0.0     0.0     0.0     0.0    0.00    0.00     0.0    0.0    0.0    0.00    0.00
 2001 239     7     4     0.0     0.0     0.0    0.00    0.00      0.0     0.0     0.0     0.0    0.00    0.00     0.0    0.0    0.0    0.00    0.00
 2001 240     8     5     0.0     0.0     0.0    0.00    0.00      0.0     0.0     0.0     0.0    0.00    0.00     0.0    0.0    0.0    0.00    0.00
 2001 241     9     6     0.0     0.0     0.0    0.00    0.00      0.0     0.0     0.0     0.0    0.00    0.00     0.0    0.0    0.0    0.00    0.00
 2001 242    10     7     0.0     0.0     0.0    0.00    0.00      0.0     0.0     0.0     0.0    0.00    0.00     0.0    0.0    0.0    0.00    0.00
 2001 243    11     8     0.0     0.0     0.0    0.00    0.00      0.0     0.0     0.0     0.0    0.00    0.00     0.0    0.0    0.0    0.00    0.00
 2001 244    12     9     0.0     0.0     0.0    0.00    0.00      0.0     0.0     0.0     0.0    0.00    0.00     0.0    0.0    0.0    0.00    0.00
 2001 245    13    10     0.2     0.0     0.2    0.00    5.15      0.0     0.0     0.2     0.0    5.70    2.64     0.0    1.5    0.0    0.00    0.00
 2001 246    14    11     0.2     0.0     0.2    0.00    5.16      0.0     0.0     0.2     0.0    5.70    2.64     0.0    1.5    0.0    0.00    0.01
 2001 247    15    12     0.2     0.0     0.2    0.00    5.17      0.0     0.0     0.2     0.0    5.70    2.64     0.0    1.5    0.0    0.00    0.01
 2001 248    16    13     0.2     0.0     0.2    0.00    5.18      0.0     0.0     0.2     0.0    5.70    2.65     0.0    1.5    0.0    0.00    0.01
 2001 249    17    14     0.2     0.0     0.2    0.00    5.18      0.0     0.0     0.2     0.0    5.70    2.65     0.0    1.5    0.0    0.00    0.01
 2001 250    18    15     0.2     0.0     0.2    0.00    5.19      0.0     0.1     0.2     0.0    5.71    2.65     0.0    1.5    0.0    0.00    0.02
 2001 251    19    16     0.2     0.0     0.2    0.00    5.17      0.0     0.1     0.2     0.0    5.71    2.65     0.0    1.5    0.0    0.00    0.02
 2001 252    20    17     0.3     0.0     0.3    0.00    5.16      0.0     0.1     0.2     0.0    5.71    2.65     0.0    1.5    0.0    0.00    0.02
 2001 253    21    18     0.3     0.0     0.3    0.00    5.14      0.0     0.1     0.2     0.0    5.71    2.65     0.0    1.5    0.0    0.00    0.02
 2001 254    22    19     0.3     0.0     0.3    0.00    5.12      0.1     0.1     0.3     0.0    5.71    2.65     0.0    1.5    0.0    0.00    0.02
 2001 255    23    20     0.3     0.0     0.3    0.00    5.10      0.1     0.2     0.3     0.0    5.71    2.65     0.0    1.5    0.0    0.00    0.02
 2001 256    24    21     0.3     0.0     0.3    0.00    5.07      0.1     0.2     0.3     0.0    5.71    2.65     0.0    1.5    0.0    0.00    0.02
 2001 257    25    22     0.3     0.0     0.3    0.00    5.06      0.1     0.2     0.3     0.0    5.71    2.65     0.0    1.5    0.0    0.00    0.02
 2001 258    26    23     0.3     0.0     0.3    0.00    5.05      0.1     0.2     0.3     0.0    5.71    2.65     0.0    1.5    0.0    0.00    0.02
 2001 259    27    24     0.3     0.0     0.3    0.00    5.03      0.1     0.2     0.3     0.0    5.71    2.65     0.0    1.5    0.0    0.00    0.03
 2001 260    28    25     0.4     0.0     0.4    0.00    5.01      0.1     0.2     0.3     0.0    5.71    2.65     0.0    1.5    0.0    0.00    0.03
 2001 261    29    26     0.4     0.0     0.4    0.00    4.98      0.1     0.3     0.3     0.0    5.71    2.65     0.0    1.5    0.0    0.00    0.03
 2001 262    30    27     0.4     0.0     0.4    0.00    4.94      0.1     0.3     0.3     0.1    5.71    2.65     0.0    1.5    0.0    0.00    0.03
 2001 263    31    28     0.4     0.0     0.4    0.00    4.90      0.1     0.3     0.4     0.1    5.72    2.65     0.0    1.5    0.0    0.00    0.03
 2001 264    32    29     0.4     0.0     0.4    0.00    4.87      0.1     0.4     0.4     0.1    5.72    2.65     0.0    1.5    0.0    0.00    0.03
 2001 265    33    30     0.5     0.0     0.5    0.00    4.90      0.1     0.4     0.4     0.1    5.72    2.66     0.0    1.5    0.0    0.00    0.03
 2001 266    34    31     0.5     0.0     0.5    0.00    4.91      0.1     0.5     0.5     0.1    5.72    2.66     0.0    1.5    0.0    0.00    0.03
 2001 267    35    32     0.6     0.0     0.6    0.00    4.91      0.1     0.5     0.5     0.1    5.72    2.66     0.0    1.5    0.0    0.00    0.03
 2001 268    36    33     0.6     0.0     0.6    0.00    4.93      0.1     0.6     0.5     0.1    5.72    2.66     0.0    1.5    0.0    0.00    0.04
 2001 269    37    34     0.6     0.0     0.6    0.00    4.94      0.1     0.6     0.6     0.1    5.72    2.66     0.0    1.5    0.0    0.00    0.04
 2001 270    38    35     0.7     0.0     0.7    0.00    4.95      0.1     0.7     0.6     0.1    5.72    2.66     0.0    1.5    0.0    0.00    0.04
 2001 271    39    36     0.7     0.0     0.7    0.00    4.95      0.1     0.7     0.6     0.1    5.72    2.66     0.0    1.5    0.0    0.00    0.04
 2001 272    40    37     0.8     0.0     0.8    0.00    4.95      0.1     0.8     0.7     0.1    5.72    2.66     0.0    1.5    0.0    0.00    0.04
 2001 273    41    38     0.8     0.0     0.8    0.00    4.95      0.1     0.9     0.7     0.1    5.72    2.66     0.0    1.5    0.0    0.00    0.05
 2001 274    42    39     0.9     0.0     0.9    0.00    4.91      0.1     0.9     0.8     0.1    5.68    2.64     0.0    1.5    0.0    0.00    0.05
 2001 275    43    40     0.9     0.0     0.9    0.00    4.92      0.1     1.0     0.8     0.1    5.69    2.65     0.0    1.5    0.0    0.00    0.05
 2001 276    44    41     1.0     0.0     1.0    0.00    4.91      0.1     1.0     0.9     0.1    5.70    2.65     0.0    1.5    0.0    0.00    0.05
 2001 277    45    42     1.1     0.0     1.1    0.00    4.85      0.1     1.2     0.9     0.2    5.70    2.65     0.0    1.5    0.0    0.00    0.05
 2001 278    46    43     1.2     0.0     1.2    0.00    4.84      0.1     1.3     1.0     0.2    5.70    2.65     0.0    1.5    0.0    0.00    0.05
 2001 279    47    44     1.4     0.0     1.4    0.00    4.82      0.1     1.5     1.2     0.2    5.70    2.65     0.0    1.5    0.0    0.00    0.05
 2001 280    48    45     1.5     0.0     1.5    0.00    4.82      0.1     1.6     1.2     0.2    5.70    2.65     0.0    1.5    0.0    0.00    0.06
 2001 281    49    46     1.6     0.0     1.6    0.00    4.79      0.1     1.8     1.3     0.3    5.71    2.65     0.0    1.5    0.0    0.00    0.06
 2001 282    50    47     1.7     0.0     1.7    0.00    4.77      0.1     1.9     1.4     0.3    5.71    2.65     0.0    1.5    0.0    0.00    0.06
 2001 283    51    48     1.9     0.0     1.9    0.00    4.69      0.1     2.2     1.6     0.4    5.71    2.65     0.0    1.5    0.0    0.00    0.06
 2001 284    52    49     2.2     0.0     2.2    0.00    4.61      0.1     2.5     1.7     0.4    5.71    2.65     0.0    1.5    0.0    0.00    0.06
 2001 285    53    50     2.4     0.0     2.4    0.00    4.59      0.1     2.7     1.9     0.5    5.71    2.65     0.0    1.5    0.0    0.00    0.07
 2001 286    54    51     2.6     0.0     2.6    0.00    4.54      0.1     3.1     2.0     0.6    5.71    2.65     0.0    1.5    0.0    0.00    0.07
 2001 287    55    52     2.9     0.0     2.9    0.00    4.47      0.1     3.5     2.2     0.7    5.71    2.65     0.0    1.5    0.0    0.00    0.07
 2001 288    56    53     3.1     0.0     3.1    0.00    4.45      0.1     3.7     2.3     0.8    5.71    2.65     0.0    1.5    0.0    0.00    0.08
 2001 289    57    54     3.3     0.0     3.3    0.00    4.41      0.2     3.9     2.4     0.8    5.72    2.66     0.0    1.5    0.0    0.00    0.08
 2001 290    58    55     3.7     0.0     3.7    0.00    4.41      0.2     4.4     2.8     0.9    5.72    2.66     0.0    1.5    0.0    0.00    0.09
 2001 291    59    56     4.2     0.0     4.2    0.00    4.42      0.2     5.0     3.1     1.1    5.72    2.66     0.0    1.5    0.0    0.00    0.10
 2001 292    60    57     4.9     0.0     4.9    0.00    4.41      0.2     5.8     3.6     1.2    5.72    2.66     0.0    1.5    0.0    0.00    0.10
 2001 293    61    58     5.6     0.0     5.6    0.00    4.41      0.2     6.6     4.2     1.4    5.72    2.66     0.0    1.5    0.0    0.00    0.11
 2001 294    62    59     6.3     0.0     6.3    0.00    4.41      0.2     7.4     4.7     1.6    5.72    2.66     0.0    1.5    0.0    0.00    0.11
 2001 295    63    60     7.1     0.0     7.1    0.00    4.40      0.2     8.3     5.2     1.8    5.72    2.66     0.0    1.5    0.0    0.00    0.12
 2001 296    64    61     8.0     0.0     8.0    0.00    4.39      0.3     9.3     5.9     2.1    5.72    2.66     0.0    1.5    0.0    0.00    0.12
 2001 297    65    62     9.2     0.0     9.2    0.00    4.38      0.3    10.7     6.8     2.4    5.72    2.66     0.0    1.5    0.0    0.00    0.13
 2001 298    66    63    10.6     0.0    10.6    0.00    4.37      0.3    12.3     7.7     2.8    5.72    2.66     0.0    1.5    0.0    0.00    0.14
 2001 299    67    64    11.3     0.0    11.3    0.00    4.37      0.3    13.2     8.3     3.0    5.72    2.66     0.0    1.5    0.0    0.00    0.15
 2001 300    68    65    11.9     0.0    11.9    0.00    4.33      0.3    13.9     8.7     3.2    5.68    2.64     0.0    1.5    0.0    0.01    0.17
 2001 301    69    66    12.6     0.0    12.6    0.00    4.29      0.4    14.6     9.2     3.4    5.65    2.61     0.0    1.5    0.1    0.02    0.19
 2001 302    70    67    13.4     0.0    13.4    0.00    4.25      0.6    15.3     9.7     3.7    5.62    2.58     0.0    1.5    0.2    0.04    0.22
 2001 303    71    68    15.2     0.0    15.2    0.00    4.24      0.7    17.5    11.0     4.3    5.63    2.58     0.0    1.5    0.0    0.05    0.23
 2001 304    72    69    17.4     0.0    17.4    0.00    4.25      0.7    20.2    12.4     4.9    5.67    2.61     0.0    1.5    0.0    0.05    0.24
 2001 305    73    70    19.8     0.0    19.8    0.00    4.24      0.7    23.0    14.0     5.7    5.68    2.61     0.0    1.5    0.0    0.05    0.25
 2001 306    74    71    21.9     0.0    21.9    0.00    4.23      0.8    25.6    15.5     6.4    5.69    2.61     0.0    1.5    0.0    0.05    0.26
 2001 307    75    72    24.4     0.0    24.4    0.00    4.21      0.8    28.6    17.1     7.2    5.69    2.60     0.0    1.5    0.0    0.05    0.28
 2001 308    76    73    27.2     0.0    27.2    0.00    4.19      0.9    32.0    19.0     8.2    5.69    2.60     0.0    1.5    0.0    0.05    0.30
 2001 309    77    74    30.4     0.0    30.4    0.00    4.17      0.9    35.7    21.1     9.3    5.69    2.59     0.0    1.5    0.0    0.05    0.32
 2001 310    78    75    32.4     0.0    32.4    0.00    4.17      1.0    38.3    22.4    10.0    5.71    2.60     0.0    1.5    0.0    0.08    0.35
 2001 311    79    76    33.6     0.0    33.6    0.00    4.18      1.0    39.9    23.2    10.4    5.73    2.61     0.0    1.5    0.0    0.11    0.40
 2001 312    80    77    36.1     0.0    36.1    0.00    4.17      1.0    43.0    24.8    11.3    5.74    2.60     0.0    1.5    0.0    0.14    0.42
 2001 313    81    78    37.9     0.0    37.9    0.00    4.00      1.8    44.4    26.0    11.9    5.61    2.46     0.0    1.5    0.7    0.21    0.45
 2001 314    82    79    39.4     0.0    39.4    0.00    3.94      2.7    45.4    26.9    12.4    5.55    2.42     0.0    1.4    0.8    0.25    0.49
 2001 315    83    80    42.2     0.0    42.2    0.00    3.78      3.8    47.7    28.8    13.3    5.40    2.29     4.0    1.4    0.9    0.29    0.52
 2001 316    84    81    45.8     0.0    45.7    0.00    3.73      5.0    50.9    31.0    14.7    5.37    2.27     4.0    1.4    1.0    0.33    0.56
 2001 317    85    82    49.4     0.0    49.1    0.00    3.85      5.0    54.9    33.1    16.0    5.51    2.37     4.0    1.5    0.0    0.33    0.69
 2001 318    86    83    52.7     0.0    52.0    0.00    3.81      6.2    57.5    34.9    17.2    5.49    2.35     4.0    1.4    1.1    0.43    0.73
 2001 319    87    84    55.8     0.0    54.7    0.00    3.67      7.6    59.9    36.5    18.2    5.35    2.26     4.0    1.4    1.2    0.48    0.77
 2001 320    88    85    58.3     0.0    56.7    0.00    3.58      9.3    61.3    37.8    18.9    5.27    2.19     4.0    1.4    1.4    0.51    0.80
 2001 321    89    86    60.9     0.0    58.8    0.00    3.48     11.1    62.7    39.1    19.7    5.17    2.10     3.9    1.4    1.6    0.55    0.83
 2001 322    90    87    64.0     0.0    61.2    0.00    3.36     13.3    64.2    40.6    20.6    5.08    2.02     3.9    1.3    1.9    0.59    0.88
 2001 323    91    88    66.7     0.0    63.2    0.00    3.28     15.9    65.2    41.9    21.3    5.00    1.96     3.9    1.3    2.2    0.65    0.93
 2001 324    92    89    69.3     0.0    64.9    0.00    3.18     18.8    65.6    43.0    21.9    4.91    1.88     3.9    1.3    2.5    0.71    0.99
 2001 325    93    90    71.8     0.0    66.3    0.00    3.15     21.0    66.3    43.7    22.6    4.88    1.87     3.9    1.3    2.2    0.77    1.06
 2001 326    94    91    75.6     0.0    68.9    0.00    3.14     23.7    67.8    45.1    23.8    4.88    1.87     3.9    1.3    2.7    0.83    1.13
 2001 327    95    92    78.8     0.0    70.7    0.00    3.07     27.2    68.4    46.2    24.5    4.81    1.83     3.8    1.3    2.9    0.90    1.20
 2001 328    96    93    80.1     0.0    70.5    0.00    3.04     27.3    69.7    46.1    24.4    4.78    1.80     3.8    1.3    0.1    0.94    1.43
 2001 329    97    94    82.4     0.0    71.3    0.00    3.02     28.7    70.7    46.5    24.8    4.76    1.79     3.8    1.3    1.5    0.97    1.47
 2001 330    98    95    83.8     0.0    71.0    0.00    2.99     29.6    71.3    46.3    24.7    4.73    1.77     3.8    1.3    0.8    1.02    1.54
 2001 331    99    96    87.2     0.0    72.5    0.00    2.93     33.3    71.9    47.2    25.4    4.68    1.73     3.8    1.2    3.2    1.07    1.60
 2001 332   100    97    91.2     0.0    74.7    0.00    2.90     37.1    72.7    48.3    26.4    4.65    1.72     3.8    1.2    3.5    1.12    1.65
 2001 333   101    98    95.0     0.0    76.6    0.00    2.88     40.8    73.3    49.3    27.3    4.63    1.71     3.8    1.2    3.5    1.17    1.70
 2001 334   102    99    96.4     0.0    76.0    0.00    2.87     41.9    73.7    48.9    27.1    4.61    1.70     3.8    1.2    1.0    1.20    1.73
 2001 335   103   100   100.6     0.0    78.3    0.00    2.85     46.4    74.2    50.1    28.2    4.61    1.70     3.8    1.2    4.1    1.25    1.79
 2001 336   104   101   104.3     0.0    80.3    0.00    2.82     49.9    75.1    51.1    29.3    4.58    1.69     3.8    1.2    3.4    1.54    1.84
 2001 337   105   102   105.2     0.0    79.6    6.26    2.79     50.9    75.6    50.6    29.0    4.54    1.67     3.8    1.2    0.9    2.14    1.90
 2001 338   106   103   107.0     0.1    79.2    6.23    2.77     52.4    76.0    50.3    28.9    4.52    1.65     3.7    1.2    1.5    2.21    1.95
 2001 339   107   104   108.7     0.2    79.6    6.20    2.75     54.8    76.5    50.4    29.2    4.50    1.65     3.7    1.2    2.3    3.19    2.01
 2001 340   108   105   111.3     0.4    80.9    6.19    2.73     57.7    77.6    50.9    29.9    4.48    1.64     3.7    1.2    2.8    4.18    2.08
 2001 341   109   106   114.2     0.7    82.6    6.20    2.72     61.6    78.3    51.7    30.9    4.47    1.64     3.7    1.2    3.8    5.57    2.15
 2001 342   110   107   116.5     1.0    83.4    6.28    2.71     64.8    78.7    52.0    31.4    4.46    1.64     3.7    1.2    3.1    6.66    2.19
 2001 343   111   108   119.4     1.4    84.5    6.38    2.69     66.2    80.5    52.5    32.0    4.44    1.63     3.7    1.2    1.4    6.71    2.23
 2001 344   112   109   123.1     1.8    86.1    6.34    2.68     70.6    80.7    53.2    32.9    4.44    1.63     3.6    1.2    4.3    7.32    2.28
 2001 345   113   110   126.2     2.3    87.1    6.32    2.67     74.3    80.9    53.5    33.5    4.43    1.63     3.6    1.2    3.7    7.88    2.34
 2001 346   114   111   128.7     2.9    87.6    6.30    2.65     76.9    81.9    53.6    33.9    4.41    1.62     3.6    1.2    2.6    8.80    2.42
 2001 347   115   112   130.5     3.6    88.0    6.31    2.64     80.1    82.4    53.7    34.3    4.40    1.62     3.6    1.2    3.2   10.50    2.51
 2001 348   116   113   132.8     4.5    88.8    6.31    2.63     83.8    83.0    54.0    34.9    4.40    1.63     3.6    1.2    3.7   12.29    2.60
 2001 349   117   114   136.0     5.5    89.8    6.28    2.63     88.5    83.6    54.3    35.5    4.39    1.63     3.6    1.2    4.6   13.65    2.69
 2001 350   118   115   137.4     6.6    90.0    6.27    2.61     93.1    84.0    54.2    35.8    4.37    1.62     3.6    1.2    4.6   15.92    2.76
 2001 351   119   116   141.5     7.8    90.5    6.25    2.59     98.4    84.6    54.4    36.2    4.35    1.61     3.5    1.2    5.3   16.00    2.85
 2001 352   120   117   143.5     9.0    91.8    6.24    2.59    103.1    85.1    54.8    36.9    4.35    1.61     3.5    1.2    4.7   18.90    2.94
 2001 353   121   118   146.3    10.6    90.9    6.25    2.57    106.6    85.5    54.2    36.6    4.32    1.60     3.5    1.2    3.5   19.38    3.04
 2001 354   122   119   148.0    12.2    89.6    6.28    2.55    109.8    85.7    53.5    36.1    4.30    1.59     3.5    1.2    3.2   20.55    3.15
 2001 355   123   120   148.6    13.8    88.2    6.27    2.53    110.0    87.1    52.7    35.5    4.27    1.57     3.5    1.2    0.2   21.52    3.44
 2001 356   124   121   151.0    15.6    87.7    6.26    2.51    115.5    87.6    52.3    35.4    4.25    1.56     3.5    1.2    5.3   22.85    3.51
 2001 357   125   122   154.4    17.3    88.5    6.25    2.50    119.6    88.5    52.6    36.0    4.24    1.56     3.4    1.2    4.1   24.26    3.58
 2001 358   126   123   157.1    19.3    88.3    6.25    2.48    124.6    89.0    52.3    36.0    4.22    1.55     3.4    1.2    5.1   25.64    3.65
 2001 359   127   124   160.1    21.4    87.9    6.24    2.46    129.6    89.7    52.0    35.9    4.19    1.54     3.4    1.2    4.9   26.84    3.73
 2001 360   128   125   163.3    23.6    87.4    6.24    2.44    134.8    90.0    51.6    35.8    4.17    1.53     3.4    1.2    5.2   27.72    3.81
 2001 361   129   126   166.2    26.1    86.6    6.26    2.42    139.2    90.6    51.1    35.6    4.14    1.51     3.4    1.2    4.4   28.63    3.91
 2001 362   130   127   168.3    28.6    85.7    6.27    2.39    143.8    91.0    50.5    35.3    4.11    1.50     3.3    1.2    4.6   30.14    4.01
 2001 363   131   128   170.1    31.4    84.5    6.28    2.37    148.1    91.4    49.7    34.8    4.08    1.48     3.3    1.2    4.3   31.95    4.11
 2001 364   132   129   171.2    34.4    83.1    6.30    2.34    151.7    92.4    48.9    34.2    4.04    1.47     3.3    1.2    3.6   34.37    4.20
 2001 365   133   130   172.7    37.8    81.2    6.31    2.32    154.6    93.1    47.8    33.4    4.00    1.45     3.3    1.2    2.9   35.80    4.29
 2002 001   134   131   175.8    41.3    79.8    6.31    2.29    159.6    93.6    47.0    32.8    3.97    1.43     3.2    1.2    5.0   36.68    4.38
 2002 002   135   132   178.8    45.0    78.3    6.31    2.26    164.1    93.9    46.1    32.2    3.93    1.41     3.2    1.2    4.5   37.48    4.47
 2002 003   136   133   181.5    48.9    77.0    6.30    2.24    169.0    94.3    45.3    31.7    3.89    1.39     3.2    1.1    4.8   38.85    4.56
 2002 004   137   134   183.8    52.9    75.3    6.30    2.21    173.2    94.6    44.3    31.0    3.85    1.37     3.1    1.1    4.2   40.25    4.66
 2002 005   138   135   184.0    57.4    73.5    6.29    2.18    173.8    95.4    43.3    30.2    3.81    1.35     3.1    1.1    0.7   41.52    4.74
 2002 006   139   136   186.3    62.1    71.7    6.28    2.15    176.5    96.6    42.3    29.4    3.76    1.33     3.0    1.1    2.6   42.16    4.81
 2002 007   140   137   189.4    66.6    70.2    6.27    2.12    181.2    96.8    41.4    28.8    3.72    1.31     3.0    1.1    4.7   43.13    4.88
 2002 008   141   138   192.4    71.2    69.0    6.27    2.09    185.9    97.1    40.7    28.3    3.68    1.29     3.0    1.1    4.7   44.14    4.95
 2002 009   142   139   195.6    76.4    67.2    6.26    2.06    190.0    97.5    39.6    27.5    3.64    1.26     2.9    1.1    4.1   44.89    5.03
 2002 010   143   140   198.7    81.7    65.3    6.26    2.02    194.3    97.8    38.6    26.7    3.59    1.24     2.9    1.1    4.3   45.73    5.12
 2002 011   144   141   201.1    87.5    63.5    6.27    1.99    197.7    98.1    37.5    25.9    3.53    1.21     2.8    1.1    3.3   47.01    5.27
 2002 012   145   142   202.2    93.2    61.4    6.27    1.93    199.1    98.3    36.3    25.1    3.46    1.17     2.7    1.1    1.5   47.69    5.53
 2002 013   146   143   202.9    98.6    59.2    6.25    1.88    199.9    98.8    35.1    24.1    3.39    1.14     2.6    1.1    0.8   48.37    5.82
 2002 014   147   144   204.2   103.5    57.6    6.24    1.85    201.4    99.2    34.2    23.5    3.34    1.12     2.6    1.1    1.5   48.99    5.89
 2002 015   148   145   207.4   109.1    56.1    6.22    1.82    205.0    99.5    33.3    22.8    3.29    1.10     2.5    1.1    3.6   49.55    5.96
 2002 016   149   146   207.8   113.8    53.9    6.17    1.77    206.4    99.6    31.9    22.0    3.23    1.07     2.4    1.0    1.3   50.63    6.21
 2002 017   150   147   207.9   118.2    51.5    6.12    1.73    207.4    99.9    30.3    21.2    3.17    1.05     2.3    1.0    1.0   51.73    6.46
 2002 018   151   148   208.2   122.0    49.7    6.09    1.68    207.8   100.1    29.3    20.4    3.11    1.02     2.3    1.0    0.4   51.83    6.76
 2002 019   152   149   208.0   125.9    47.8    6.09    1.64    207.8   100.3    28.2    19.6    3.03    0.98     2.2    1.0    0.0   52.24    7.18
 2002 020   153   150   207.2   128.8    45.7    6.10    1.59    207.8   100.3    26.8    18.9    2.97    0.96     2.1    1.0    0.0   53.13    7.62
 2002 021   154   151   200.6   132.2    37.6    6.11    1.47    207.8   100.3    20.5    17.1    2.88    0.93     2.0    1.0    0.0   59.87    8.04
 2002 022   155   152   195.6   134.0    31.9    6.11    1.38    207.8   100.3    16.0    16.0    2.83    0.91     1.9    1.0    0.0   64.89    8.43
 2002 023   156   153   191.7   135.6    27.5    6.12    1.29    207.8   100.3    12.5    15.0    2.77    0.89     1.9    1.0    0.0   68.81    8.81
 2002 024   157   154   188.8   137.6    23.7    6.12    1.20    207.8   100.4     9.6    14.1    2.71    0.87     1.8    1.0    0.0   71.86    9.14
 2002 025   158   155   186.9   139.9    20.8    6.12    1.13    207.8   100.9     7.5    13.3    2.64    0.85     1.8    1.0    0.0   74.26    9.44
 2002 026   159   156   185.2   140.8    18.7    6.13    1.07    207.8   100.9     5.9    12.9    2.61    0.84     1.7    1.0    0.0   76.06    9.71
 2002 027   160   157   183.8   141.5    17.1    6.13    1.02    207.8   100.9     4.6    12.5    2.58    0.83     1.7    1.0    0.0   77.45    9.97
 2002 028   161   158   182.7   142.3    15.8    6.13    0.98    207.8   100.9     3.6    12.1    2.56    0.83     1.7    1.0    0.0   78.55   10.21
 2002 029   162   159   181.8   142.4    14.8    6.13    0.95    207.8   100.9     2.9    11.9    2.55    0.82     1.7    1.0    0.0   79.42   10.44
 2002 030   163   160   181.2   142.4    14.2    6.13    0.93    207.8   100.9     2.3    11.8    2.56    0.83     1.7    1.0    0.0   80.10   10.68
 2002 031   164   161   180.6   142.4    13.6    6.13    0.91    207.8   100.9     1.9    11.7    2.56    0.83     1.7    1.0    0.0   80.66   10.88
 2002 032   165   162   180.2   142.4    13.2    6.13    0.90    207.8   100.9     1.5    11.7    2.57    0.83     1.7    1.0    0.0   81.10   11.07

*DSSAT Cropping System Model Ver. 4.0.2.000               Aug 23, 2016; 20:22:27

*RUN   4        : UYSB                    
 MODEL          : CRGRO040 - Soybean         
 EXPERIMENT     : UYSB0397 SB    late to create DSS                             
 TREATMENT  1   : UYSB                    

@YEAR DOY   DAS   DAP    CNAD    GNAD    VNAD    GN%D    VN%D     NFXC    NUPC    LNAD    SNAD    LN%D    SN%D    SHND   RN%D   NFXD   SNN0C   SNN1C
 2002 235     3     0     0.0     0.0     0.0    0.00    0.00      0.0     0.0     0.0     0.0    0.00    0.00     0.0    0.0    0.0    0.00    0.00
 2002 236     4     1     0.0     0.0     0.0    0.00    0.00      0.0     0.0     0.0     0.0    0.00    0.00     0.0    0.0    0.0    0.00    0.00
 2002 237     5     2     0.0     0.0     0.0    0.00    0.00      0.0     0.0     0.0     0.0    0.00    0.00     0.0    0.0    0.0    0.00    0.00
 2002 238     6     3     0.0     0.0     0.0    0.00    0.00      0.0     0.0     0.0     0.0    0.00    0.00     0.0    0.0    0.0    0.00    0.00
 2002 239     7     4     0.0     0.0     0.0    0.00    0.00      0.0     0.0     0.0     0.0    0.00    0.00     0.0    0.0    0.0    0.00    0.00
 2002 240     8     5     0.0     0.0     0.0    0.00    0.00      0.0     0.0     0.0     0.0    0.00    0.00     0.0    0.0    0.0    0.00    0.00
 2002 241     9     6     0.0     0.0     0.0    0.00    0.00      0.0     0.0     0.0     0.0    0.00    0.00     0.0    0.0    0.0    0.00    0.00
 2002 242    10     7     0.2     0.0     0.2    0.00    5.15      0.0     0.0     0.2     0.0    5.70    2.64     0.0    1.5    0.0    0.00    0.00
 2002 243    11     8     0.2     0.0     0.2    0.00    5.14      0.0     0.0     0.2     0.0    5.70    2.64     0.0    1.5    0.0    0.00    0.01
 2002 244    12     9     0.2     0.0     0.2    0.00    5.14      0.0     0.0     0.2     0.0    5.70    2.64     0.0    1.5    0.0    0.00    0.01
 2002 245    13    10     0.2     0.0     0.2    0.00    5.14      0.0     0.0     0.2     0.0    5.70    2.64     0.0    1.5    0.0    0.00    0.01
 2002 246    14    11     0.2     0.0     0.2    0.00    5.13      0.0     0.0     0.2     0.0    5.70    2.64     0.0    1.5    0.0    0.00    0.01
 2002 247    15    12     0.2     0.0     0.2    0.00    5.12      0.0     0.1     0.2     0.0    5.70    2.64     0.0    1.5    0.0    0.00    0.01
 2002 248    16    13     0.2     0.0     0.2    0.00    5.11      0.0     0.1     0.2     0.0    5.70    2.64     0.0    1.5    0.0    0.00    0.02
 2002 249    17    14     0.2     0.0     0.2    0.00    5.12      0.0     0.1     0.2     0.0    5.70    2.65     0.0    1.5    0.0    0.00    0.02
 2002 250    18    15     0.3     0.0     0.3    0.00    5.11      0.0     0.1     0.2     0.0    5.70    2.65     0.0    1.5    0.0    0.00    0.02
 2002 251    19    16     0.3     0.0     0.3    0.00    5.10      0.1     0.1     0.2     0.0    5.70    2.65     0.0    1.5    0.0    0.00    0.02
 2002 252    20    17     0.3     0.0     0.3    0.00    5.09      0.1     0.1     0.3     0.0    5.70    2.65     0.0    1.5    0.0    0.00    0.02
 2002 253    21    18     0.3     0.0     0.3    0.00    5.09      0.1     0.1     0.3     0.0    5.71    2.65     0.0    1.5    0.0    0.00    0.02
 2002 254    22    19     0.3     0.0     0.3    0.00    5.09      0.1     0.2     0.3     0.0    5.71    2.65     0.0    1.5    0.0    0.00    0.02
 2002 255    23    20     0.3     0.0     0.3    0.00    5.08      0.1     0.2     0.3     0.0    5.71    2.65     0.0    1.5    0.0    0.00    0.03
 2002 256    24    21     0.3     0.0     0.3    0.00    5.06      0.1     0.2     0.3     0.0    5.71    2.65     0.0    1.5    0.0    0.00    0.03
 2002 257    25    22     0.4     0.0     0.4    0.00    5.03      0.1     0.2     0.3     0.0    5.71    2.65     0.0    1.5    0.0    0.00    0.03
 2002 258    26    23     0.4     0.0     0.4    0.00    5.02      0.1     0.3     0.3     0.0    5.71    2.65     0.0    1.5    0.0    0.00    0.03
 2002 259    27    24     0.4     0.0     0.4    0.00    5.01      0.1     0.3     0.3     0.0    5.71    2.65     0.0    1.5    0.0    0.00    0.03
 2002 260    28    25     0.4     0.0     0.4    0.00    5.00      0.1     0.3     0.3     0.0    5.71    2.65     0.0    1.5    0.0    0.00    0.03
 2002 261    29    26     0.4     0.0     0.4    0.00    5.00      0.1     0.3     0.4     0.1    5.72    2.66     0.0    1.5    0.0    0.00    0.03
 2002 262    30    27     0.4     0.0     0.4    0.00    4.98      0.1     0.3     0.4     0.1    5.72    2.66     0.0    1.5    0.0    0.00    0.03
 2002 263    31    28     0.4     0.0     0.4    0.00    4.95      0.1     0.4     0.4     0.1    5.72    2.66     0.0    1.5    0.0    0.00    0.03
 2002 264    32    29     0.5     0.0     0.5    0.00    4.92      0.1     0.4     0.4     0.1    5.72    2.66     0.0    1.5    0.0    0.00    0.03
 2002 265    33    30     0.5     0.0     0.5    0.00    4.89      0.1     0.4     0.4     0.1    5.72    2.66     0.0    1.5    0.0    0.00    0.03
 2002 266    34    31     0.5     0.0     0.5    0.00    4.93      0.1     0.5     0.4     0.1    5.72    2.66     0.0    1.5    0.0    0.00    0.03
 2002 267    35    32     0.6     0.0     0.6    0.00    4.95      0.1     0.5     0.5     0.1    5.72    2.66     0.0    1.5    0.0    0.00    0.04
 2002 268    36    33     0.6     0.0     0.6    0.00    4.95      0.1     0.6     0.5     0.1    5.72    2.66     0.0    1.5    0.0    0.00    0.04
 2002 269    37    34     0.7     0.0     0.7    0.00    4.95      0.1     0.7     0.6     0.1    5.72    2.66     0.0    1.5    0.0    0.00    0.04
[...]
 2013 259    27    24     0.4     0.0     0.4    0.00    4.99      0.1     0.3     0.4     0.1    5.72    2.66     0.0    1.5    0.0    0.00    0.03
 2013 260    28    25     0.4     0.0     0.4    0.00    4.99      0.1     0.3     0.4     0.1    5.72    2.66     0.0    1.5    0.0    0.00    0.03
 2013 261    29    26     0.4     0.0     0.4    0.00    5.01      0.1     0.4     0.4     0.1    5.72    2.66     0.0    1.5    0.0    0.00    0.03
 2013 262    30    27     0.5     0.0     0.5    0.00    5.02      0.1     0.4     0.4     0.1    5.72    2.66     0.0    1.5    0.0    0.00    0.03
 2013 263    31    28     0.5     0.0     0.5    0.00    5.02      0.1     0.5     0.5     0.1    5.72    2.66     0.0    1.5    0.0    0.00    0.03
 2013 264    32    29     0.6     0.0     0.6    0.00    5.02      0.1     0.5     0.5     0.1    5.72    2.66     0.0    1.5    0.0    0.00    0.03
 2013 265    33    30     0.6     0.0     0.6    0.00    5.03      0.1     0.6     0.5     0.1    5.72    2.66     0.0    1.5    0.0    0.00    0.04
 2013 266    34    31     0.6     0.0     0.6    0.00    5.04      0.1     0.6     0.6     0.1    5.72    2.66     0.0    1.5    0.0    0.00    0.04
 2013 267    35    32     0.7     0.0     0.7    0.00    5.04      0.1     0.6     0.6     0.1    5.72    2.66     0.0    1.5    0.0    0.00    0.04
 2013 268    36    33     0.7     0.0     0.7    0.00    5.02      0.1     0.7     0.6     0.1    5.72    2.66     0.0    1.5    0.0    0.00    0.04
 2013 269    37    34     0.7     0.0     0.7    0.00    5.00      0.1     0.7     0.6     0.1    5.72    2.66     0.0    1.5    0.0    0.00    0.04
 2013 270    38    35     0.8     0.0     0.8    0.00    4.98      0.1     0.8     0.7     0.1    5.72    2.66     0.0    1.5    0.0    0.00    0.04
 2013 271    39    36     0.9     0.0     0.9    0.00    4.97      0.1     0.9     0.7     0.1    5.72    2.66     0.0    1.5    0.0    0.00    0.04
 2013 272    40    37     0.9     0.0     0.9    0.00    4.97      0.1     1.0     0.8     0.1    5.72    2.66     0.0    1.5    0.0    0.00    0.04
 2013 273    41    38     1.0     0.0     1.0    0.00    4.97      0.1     1.1     0.9     0.1    5.72    2.66     0.0    1.5    0.0    0.00    0.04
 2013 274    42    39     1.1     0.0     1.1    0.00    4.95      0.1     1.2     0.9     0.1    5.72    2.66     0.0    1.5    0.0    0.00    0.04
 2013 275    43    40     1.2     0.0     1.2    0.00    4.93      0.1     1.3     1.0     0.2    5.72    2.66     0.0    1.5    0.0    0.00    0.04
 2013 276    44    41     1.2     0.0     1.2    0.00    4.91      0.1     1.4     1.1     0.2    5.72    2.66     0.0    1.5    0.0    0.00    0.05
 2013 277    45    42     1.3     0.0     1.3    0.00    4.89      0.1     1.5     1.1     0.2    5.72    2.66     0.0    1.5    0.0    0.00    0.05
 2013 278    46    43     1.4     0.0     1.4    0.00    4.87      0.1     1.6     1.2     0.2    5.72    2.66     0.0    1.5    0.0    0.00    0.05
 2013 279    47    44     1.5     0.0     1.5    0.00    4.83      0.1     1.7     1.3     0.2    5.72    2.66     0.0    1.5    0.0    0.00    0.05
 2013 280    48    45     1.6     0.0     1.6    0.00    4.77      0.1     1.9     1.4     0.3    5.72    2.66     0.0    1.5    0.0    0.00    0.05
 2013 281    49    46     1.8     0.0     1.8    0.00    4.74      0.1     2.1     1.5     0.3    5.72    2.66     0.0    1.5    0.0    0.00    0.05
 2013 282    50    47     2.0     0.0     2.0    0.00    4.71      0.1     2.3     1.6     0.4    5.72    2.66     0.0    1.5    0.0    0.00    0.05
 2013 283    51    48     2.1     0.0     2.1    0.00    4.68      0.1     2.5     1.7     0.4    5.72    2.66     0.0    1.5    0.0    0.00    0.06
 2013 284    52    49     2.3     0.0     2.3    0.00    4.65      0.1     2.7     1.8     0.5    5.72    2.66     0.0    1.5    0.0    0.00    0.06
 2013 285    53    50     2.4     0.0     2.4    0.00    4.64      0.1     2.8     1.9     0.5    5.72    2.66     0.0    1.5    0.0    0.00    0.07
 2013 286    54    51     2.5     0.0     2.5    0.00    4.60      0.1     3.0     2.0     0.5    5.73    2.66     0.0    1.5    0.0    0.00    0.07
 2013 287    55    52     2.8     0.0     2.8    0.00    4.54      0.1     3.4     2.2     0.6    5.73    2.66     0.0    1.5    0.0    0.00    0.08
 2013 288    56    53     3.2     0.0     3.2    0.00    4.47      0.2     3.8     2.4     0.8    5.73    2.66     0.0    1.5    0.0    0.00    0.08
 2013 289    57    54     3.3     0.0     3.3    0.00    4.45      0.2     4.0     2.5     0.8    5.73    2.66     0.0    1.5    0.0    0.00    0.08
 2013 290    58    55     3.7     0.0     3.7    0.00    4.38      0.2     4.5     2.7     1.0    5.73    2.66     0.0    1.5    0.0    0.00    0.09
 2013 291    59    56     4.0     0.0     4.0    0.00    4.31      0.2     5.0     2.9     1.2    5.73    2.66     0.0    1.5    0.0    0.00    0.09
 2013 292    60    57     4.6     0.0     4.6    0.00    4.32      0.2     5.6     3.3     1.3    5.73    2.66     0.0    1.5    0.0    0.00    0.10
 2013 293    61    58     5.1     0.0     5.1    0.00    4.33      0.2     6.2     3.7     1.4    5.73    2.66     0.0    1.5    0.0    0.00    0.11
 2013 294    62    59     5.8     0.0     5.8    0.00    4.34      0.2     7.0     4.2     1.6    5.73    2.66     0.0    1.5    0.0    0.00    0.12
 2013 295    63    60     6.4     0.0     6.4    0.00    4.34      0.2     7.7     4.6     1.8    5.72    2.66     0.0    1.5    0.0    0.00    0.12
 2013 296    64    61     7.2     0.0     7.2    0.00    4.35      0.3     8.6     5.2     2.0    5.72    2.66     0.0    1.5    0.0    0.00    0.13
 2013 297    65    62     8.0     0.0     8.0    0.00    4.35      0.3     9.6     5.8     2.2    5.72    2.66     0.0    1.5    0.0    0.00    0.14
 2013 298    66    63     8.7     0.0     8.7    0.00    4.35      0.3    10.3     6.3     2.4    5.72    2.66     0.0    1.5    0.0    0.00    0.14
 2013 299    67    64     9.4     0.0     9.4    0.00    4.35      0.3    11.2     6.8     2.6    5.72    2.66     0.0    1.5    0.0    0.00    0.16
 2013 300    68    65    10.7     0.0    10.7    0.00    4.34      0.3    12.6     7.7     2.9    5.72    2.66     0.0    1.5    0.0    0.00    0.16
 2013 301    69    66    11.8     0.0    11.8    0.00    4.34      0.3    13.9     8.5     3.3    5.72    2.66     0.0    1.5    0.0    0.00    0.17
 2013 302    70    67    13.3     0.0    13.3    0.00    4.33      0.4    15.7     9.6     3.7    5.72    2.66     0.0    1.5    0.0    0.00    0.18
 2013 303    71    68    15.0     0.0    15.0    0.00    4.32      0.4    17.6    10.8     4.2    5.72    2.66     0.0    1.5    0.0    0.00    0.19
 2013 304    72    69    15.9     0.0    15.9    0.00    4.32      0.4    18.7    11.4     4.5    5.72    2.66     0.0    1.5    0.0    0.00    0.21
 2013 305    73    70    16.9     0.0    16.9    0.00    4.32      0.4    19.8    12.1     4.8    5.72    2.66     0.0    1.5    0.0    0.00    0.23
 2013 306    74    71    17.9     0.0    17.9    0.00    4.30      0.5    21.0    12.8     5.1    5.72    2.66     0.0    1.5    0.0    0.00    0.25
 2013 307    75    72    19.8     0.0    19.8    0.00    4.29      0.5    23.2    14.1     5.7    5.71    2.65     0.0    1.5    0.0    0.00    0.27
 2013 308    76    73    22.1     0.0    22.1    0.00    4.27      0.5    25.8    15.6     6.5    5.71    2.65     0.0    1.5    0.0    0.00    0.28
 2013 309    77    74    24.6     0.0    24.6    0.00    4.24      0.6    28.8    17.3     7.3    5.70    2.64     0.0    1.5    0.0    0.00    0.30
 2013 310    78    75    27.8     0.0    27.8    0.00    4.22      0.7    32.5    19.4     8.4    5.70    2.63     0.0    1.5    0.0    0.01    0.32
 2013 311    79    76    30.7     0.0    30.7    0.00    4.20      0.7    36.0    21.4     9.3    5.71    2.62     0.0    1.5    0.0    0.03    0.35
 2013 312    80    77    33.1     0.0    33.1    0.00    4.20      0.8    38.9    22.9    10.2    5.72    2.62     0.0    1.5    0.0    0.07    0.38
 2013 313    81    78    35.1     0.0    35.1    0.00    4.19      0.8    41.2    24.2    10.9    5.73    2.62     0.0    1.5    0.0    0.10    0.41
 2013 314    82    79    36.3     0.0    36.3    0.00    4.16      1.2    42.4    25.0    11.3    5.71    2.60     0.0    1.5    0.4    0.16    0.50
 2013 315    83    80    37.9     0.0    37.9    0.00    3.89      2.1    43.8    26.1    11.8    5.50    2.37     0.0    1.4    0.8    0.20    0.53
 2013 316    84    81    41.4     0.0    41.4    0.00    3.80      3.1    46.9    28.3    13.1    5.41    2.32     0.0    1.4    0.9    0.24    0.57
 2013 317    85    82    45.5     0.0    45.5    0.00    3.79      3.3    51.5    30.8    14.6    5.41    2.32     0.0    1.4    0.1    0.28    0.61
 2013 318    86    83    49.9     0.0    49.9    0.00    3.77      3.3    56.7    33.6    16.3    5.42    2.32     0.0    1.4    0.0    0.31    0.74
 2013 319    87    84    52.4     0.0    52.3    0.00    3.75      4.3    58.5    35.1    17.3    5.41    2.31     4.0    1.4    1.0    0.35    0.82
 2013 320    88    85    56.1     0.0    55.9    0.00    3.70      5.6    61.6    37.3    18.6    5.36    2.28     4.0    1.4    1.1    0.39    0.85
 2013 321    89    86    60.0     0.0    59.7    0.00    3.66      7.0    64.9    39.6    20.1    5.33    2.26     3.9    1.4    1.2    0.43    0.89
 2013 322    90    87    63.2     0.0    62.5    0.00    3.54      8.7    67.1    41.5    21.1    5.22    2.17     3.9    1.4    1.4    0.49    0.95
 2013 323    91    88    64.9     0.0    63.8    0.00    3.52      8.7    69.1    42.2    21.6    5.20    2.16     3.9    1.4    0.0    0.54    1.12
 2013 324    92    89    67.3     0.0    65.6    0.00    3.50     10.1    70.4    43.2    22.4    5.19    2.15     3.9    1.4    1.4    0.59    1.18
 2013 325    93    90    70.1     0.0    67.5    0.00    3.41     11.9    72.0    44.5    23.1    5.11    2.08     3.9    1.3    1.5    0.65    1.24
 2013 326    94    91    73.3     0.0    69.7    0.00    3.30     13.9    73.8    45.8    23.9    5.02    2.00     3.9    1.3    1.8    0.71    1.30
 2013 327    95    92    75.8     0.0    71.0    0.00    3.17     16.3    74.8    46.6    24.4    4.90    1.89     3.9    1.3    2.0    0.76    1.36
 2013 328    96    93    78.5     0.0    72.4    0.00    3.06     19.1    75.6    47.5    24.9    4.81    1.81     3.9    1.3    2.4    0.83    1.43
 2013 329    97    94    81.7     0.0    74.1    0.00    3.02     22.4    76.4    48.4    25.7    4.76    1.79     3.8    1.3    2.8    0.90    1.52
 2013 330    98    95    84.1     0.0    74.5    0.00    2.99     23.9    77.4    48.5    25.9    4.72    1.77     3.8    1.2    1.6    0.97    1.60
 2013 331    99    96    87.6     0.0    75.8    0.00    2.96     27.5    78.0    49.2    26.6    4.69    1.76     3.8    1.2    3.2    1.04    1.75
 2013 332   100    97    91.8     0.0    77.7    0.00    2.93     31.6    79.0    50.2    27.5    4.66    1.74     3.8    1.2    3.5    1.08    1.81
 2013 333   101    98    96.1     0.0    79.6    0.00    2.88     36.4    79.5    51.2    28.4    4.60    1.72     3.8    1.2    4.1    1.14    1.87
 2013 334   102    99   101.1     0.0    81.8    0.00    2.87     40.9    80.4    52.4    29.5    4.59    1.72     3.8    1.2    4.5    1.21    1.95
 2013 335   103   100   104.4     0.0    82.2    0.00    2.83     42.7    82.2    52.6    29.6    4.56    1.69     3.8    1.2    1.8    1.27    2.03
 2013 336   104   101   109.2     0.0    83.9    0.00    2.82     47.3    82.7    53.4    30.5    4.55    1.69     3.8    1.2    4.6    1.35    2.13
 2013 337   105   102   114.1     0.0    85.6    0.00    2.81     51.7    83.5    54.2    31.4    4.54    1.70     3.8    1.2    4.4    1.40    2.19
 2013 338   106   103   118.6     0.0    87.4    0.00    2.80     56.5    83.8    55.1    32.3    4.54    1.69     3.7    1.2    4.8    1.66    2.27
 2013 339   107   104   122.6     0.0    88.7    6.23    2.77     59.7    85.5    55.6    33.0    4.50    1.68     3.7    1.2    3.2    2.41    2.35
 2013 340   108   105   126.7     0.2    89.8    6.22    2.76     64.3    85.8    56.1    33.7    4.50    1.68     3.7    1.2    4.6    2.97    2.41
 2013 341   109   106   131.5     0.4    91.6    6.20    2.75     69.0    86.6    57.0    34.7    4.49    1.68     3.7    1.2    4.7    3.45    2.49
 2013 342   110   107   135.1     0.7    92.8    6.32    2.74     73.3    87.2    57.5    35.3    4.48    1.68     3.7    1.2    4.3    4.48    2.59
 2013 343   111   108   136.1     1.2    91.3    6.37    2.71     74.4    88.1    56.6    34.8    4.45    1.66     3.7    1.2    1.1    5.57    2.70
 2013 344   112   109   139.7     1.9    92.0    6.30    2.71     80.0    88.5    56.8    35.2    4.44    1.66     3.7    1.2    4.8    6.96    2.79
 2013 345   113   110   143.8     2.7    93.1    6.27    2.70     85.6    88.6    57.2    35.9    4.44    1.66     3.7    1.2    5.5    8.29    2.87
 2013 346   114   111   148.2     3.8    94.0    6.25    2.69     90.6    89.4    57.5    36.5    4.44    1.66     3.6    1.2    5.0    9.50    2.97
 2013 347   115   112   152.6     5.1    94.7    6.28    2.69     95.9    89.8    57.7    37.0    4.43    1.67     3.6    1.2    5.3   10.58    3.08
 2013 348   116   113   154.8     6.5    94.8    6.33    2.67    101.4    90.2    57.6    37.2    4.41    1.66     3.6    1.2    5.5   13.16    3.20
 2013 349   117   114   158.9     8.3    94.0    6.38    2.65    106.0    90.7    57.1    37.0    4.39    1.65     3.6    1.2    4.7   13.25    3.32
 2013 350   118   115   160.8    10.1    93.4    6.43    2.63    110.9    91.1    56.6    36.8    4.37    1.64     3.6    1.2    4.9   15.46    3.44
 2013 351   119   116   163.7    12.1    92.9    6.42    2.61    116.6    91.6    56.2    36.7    4.34    1.62     3.5    1.2    5.6   17.17    3.55
 2013 352   120   117   166.4    14.5    91.9    6.42    2.59    122.0    91.8    55.5    36.3    4.31    1.61     3.5    1.2    5.4   19.08    3.68
 2013 353   121   118   169.6    17.3    90.4    6.43    2.57    127.0    92.1    54.7    35.8    4.29    1.59     3.5    1.2    5.0   20.29    3.81
 2013 354   122   119   171.4    20.2    89.2    6.44    2.55    132.3    92.5    53.9    35.3    4.26    1.58     3.5    1.2    5.3   23.17    3.98
 2013 355   123   120   173.5    23.5    87.4    6.46    2.50    135.8    92.8    52.9    34.5    4.20    1.54     3.5    1.2    3.4   24.96    4.25
 2013 356   124   121   174.2    27.2    85.4    6.47    2.44    138.0    93.0    51.7    33.7    4.14    1.50     3.4    1.2    2.1   26.66    4.58
 2013 357   125   122   174.7    31.0    83.3    6.47    2.38    139.2    93.3    50.5    32.8    4.07    1.46     3.3    1.2    1.2   27.73    4.94
 2013 358   126   123   174.4    34.9    81.0    6.49    2.33    139.9    93.5    49.1    31.9    4.01    1.42     3.3    1.2    0.6   29.01    5.32
 2013 359   127   124   172.7    39.0    78.2    6.50    2.28    140.2    93.7    47.4    30.8    3.95    1.39     3.2    1.2    0.3   31.29    5.72
 2013 360   128   125   171.0    42.8    75.2    6.57    2.24    140.2    93.9    45.4    29.8    3.90    1.36     3.1    1.1    0.0   33.23    6.23
 2013 361   129   126   169.0    47.3    71.4    6.60    2.18    140.3    94.1    42.9    28.5    3.83    1.33     3.0    1.1    0.1   35.65    6.58
 2013 362   130   127   166.5    52.1    67.2    6.59    2.12    140.3    94.2    40.1    27.2    3.76    1.29     2.9    1.1    0.0   38.41    6.94
 2013 363   131   128   164.1    56.2    63.4    6.61    2.06    140.3    94.2    37.4    25.9    3.69    1.26     2.8    1.1    0.0   40.86    7.41
 2013 364   132   129   161.4    58.0    60.6    6.63    2.03    140.3    94.2    35.4    25.2    3.67    1.25     2.8    1.1    0.0   43.67    7.83
 2013 365   133   130   160.6    62.5    57.5    6.59    1.98    140.4    95.3    33.3    24.2    3.61    1.22     2.7    1.1    0.1   45.65    7.96
 2014 001   134   131   160.7    67.9    54.3    6.56    1.89    142.5    95.5    31.2    23.1    3.51    1.16     2.6    1.1    1.8   47.63    8.09
 2014 002   135   132   158.6    71.8    51.0    6.57    1.83    142.5    95.5    29.0    22.0    3.44    1.13     2.5    1.1    0.0   49.90    8.51
 2014 003   136   133   157.0    75.5    47.4    6.55    1.76    142.5    95.6    26.6    20.8    3.35    1.09     2.4    1.1    0.0   51.56    8.90
 2014 004   137   134   156.7    78.4    45.8    6.54    1.72    142.5    95.6    25.7    20.1    3.29    1.07     2.3    1.1    0.0   51.97    9.26
 2014 005   138   135   156.4    80.5    44.6    6.53    1.69    142.5    95.6    25.1    19.6    3.25    1.05     2.3    1.0    0.0   52.33    9.61
 2014 006   139   136   155.1    81.9    42.9    6.53    1.67    142.5    95.6    23.8    19.1    3.23    1.04     2.3    1.0    0.0   53.65    9.96
 2014 007   140   137   153.8    83.4    41.0    6.54    1.64    142.5    95.6    22.5    18.5    3.20    1.03     2.2    1.0    0.0   55.00   10.25
 2014 008   141   138   155.5    88.8    38.6    6.50    1.59    142.7    98.5    20.8    17.7    3.14    1.01     2.1    1.0    0.2   56.28   10.33
 2014 009   142   139   155.9    92.6    36.2    6.37    1.54    143.9    99.1    19.2    17.0    3.08    0.98     2.1    1.0    1.1   57.43   10.41
 2014 010   143   140   156.0    95.8    34.1    6.34    1.49    144.1   100.1    17.8    16.3    3.02    0.96     2.0    1.0    0.3   58.52   10.48
 2014 011   144   141   156.9    98.7    33.1    6.33    1.46    144.4   100.8    17.3    15.8    2.97    0.94     1.9    1.0    0.2   58.57   10.54
 2014 012   145   142   158.4   101.8    32.2    6.29    1.43    145.5   101.4    16.8    15.4    2.93    0.92     1.9    1.0    1.1   58.61   10.60
 2014 013   146   143   160.0   105.3    31.2    6.27    1.41    146.6   102.0    16.3    14.9    2.88    0.90     1.8    1.0    1.2   58.66   10.67
 2014 014   147   144   161.7   108.7    30.3    6.27    1.38    147.3   103.0    15.9    14.5    2.83    0.88     1.8    1.0    0.6   58.71   10.74
 2014 015   148   145   162.2   110.8    29.5    6.16    1.34    147.3   103.5    15.4    14.1    2.76    0.85     1.7    1.0    0.0   58.75   10.81
 2014 016   149   146   159.0   112.9    25.0    6.06    1.23    147.3   103.9    11.9    13.1    2.68    0.83     1.7    1.0    0.0   62.38   10.89
 2014 017   150   147   156.4   114.8    21.4    6.01    1.14    147.3   104.2     9.2    12.2    2.61    0.80     1.6    1.0    0.0   65.19   11.03
 2014 018   151   148   154.3   116.3    18.6    6.02    1.06    147.3   104.2     7.1    11.5    2.54    0.79     1.5    1.0    0.0   67.35   11.31
 2014 019   152   149   152.7   117.3    16.5    6.03    1.00    147.3   104.2     5.5    11.0    2.49    0.77     1.5    1.0    0.0   69.01   11.57
 2014 020   153   150   151.4   117.8    15.0    6.03    0.96    147.3   104.2     4.3    10.7    2.47    0.77     1.5    1.0    0.0   70.31   11.82
 2014 021   154   151   150.4   118.4    13.8    6.03    0.92    147.3   104.2     3.4    10.4    2.44    0.76     1.4    1.0    0.0   71.34   12.05
 2014 022   155   152   149.6   118.7    12.9    6.03    0.89    147.3   104.2     2.7    10.2    2.44    0.76     1.4    1.0    0.0   72.14   12.26
 2014 023   156   153   148.9   118.7    12.2    6.03    0.87    147.3   104.2     2.2    10.1    2.45    0.76     1.4    1.0    0.0   72.78   12.47
 2014 024   157   154   148.4   118.7    11.7    6.03    0.85    147.3   104.2     1.7    10.0    2.45    0.77     1.4    1.0    0.0   73.29   12.65
 2014 025   158   155   148.0   118.7    11.3    6.03    0.84    147.3   104.2     1.4     9.9    2.46    0.77     1.4    1.0    0.0   73.70   12.81
 2014 026   159   156   147.7   118.7    11.0    6.03    0.83    147.3   104.2     1.1     9.9    2.46    0.77     1.4    1.0    0.0   74.03   12.97
 2014 027   160   157   147.4   118.7    10.7    6.03    0.82    147.3   104.2     0.9     9.8    2.47    0.77     1.4    1.0    0.0   74.29   13.13
