*SOIL WATER DAILY OUTPUT FILE

*DSSAT Cropping System Model Ver. 4.0.2.000               Aug 23, 2016; 20:22:27

*RUN   1        : UYSB                    
 MODEL          : CRGRO040 - Soybean         
 EXPERIMENT     : UYSB0397 SB    late to create DSS                             
 TREATMENT  1   : UYSB                    

@YEAR DOY   DAS  SWXD   ROFC   DRNC   PREC  IR#C  IRRC  DTWT   SW1D   SW2D   SW3D   SW4D   SW5D   SW6D   SW7D   SW8D   SW9D   SW10
 1999 232     0   116      0      0      0     0     0   125  0.347  0.394  0.394  0.335  0.375  0.419  0.408  0.395  0.000  0.000
 1999 233     1   114      0      0      0     0     0   125  0.322  0.393  0.394  0.335  0.376  0.418  0.408  0.395  0.000  0.000
 1999 234     2   115      0      0      2     0     0   125  0.343  0.391  0.394  0.336  0.376  0.418  0.408  0.395  0.000  0.000
 1999 235     3   114      0      0      2     0     0   125  0.324  0.390  0.394  0.336  0.377  0.417  0.408  0.395  0.000  0.000
 1999 236     4   113      0      0      2     0     0   125  0.306  0.389  0.394  0.337  0.377  0.417  0.408  0.395  0.000  0.000
 1999 237     5   112      0      0      2     0     0   125  0.290  0.388  0.394  0.337  0.378  0.416  0.408  0.395  0.000  0.000
 1999 238     6   111      0      0      2     0     0   125  0.277  0.386  0.394  0.338  0.378  0.416  0.408  0.395  0.000  0.000
 1999 239     7   111      0      0      2     0     0   125  0.265  0.385  0.394  0.338  0.378  0.415  0.408  0.395  0.000  0.000
 1999 240     8   110      0      0      2     0     0   125  0.254  0.384  0.394  0.339  0.378  0.415  0.408  0.395  0.000  0.000
 1999 241     9   109      0      0      2     0     0   125  0.244  0.383  0.394  0.339  0.379  0.415  0.408  0.395  0.000  0.000
 1999 242    10   110      0      0      4     0     0   125  0.262  0.383  0.393  0.340  0.379  0.414  0.408  0.395  0.000  0.000
 1999 243    11   109      0      0      4     0     0   125  0.251  0.382  0.393  0.340  0.379  0.414  0.407  0.395  0.000  0.000
 1999 244    12   109      0      0      4     0     0   125  0.241  0.381  0.393  0.340  0.380  0.414  0.407  0.395  0.000  0.000
 1999 245    13   117      0      0     13     0     0   125  0.401  0.380  0.393  0.341  0.380  0.413  0.407  0.395  0.000  0.000
 1999 246    14   126      0      0     24     0     0   125  0.542  0.403  0.393  0.341  0.380  0.413  0.407  0.395  0.000  0.000
 1999 247    15   127      0      0     26     0     0   125  0.517  0.428  0.394  0.342  0.380  0.413  0.407  0.395  0.000  0.000
 1999 248    16   130      0      0     30     0     0   125  0.522  0.451  0.395  0.342  0.380  0.412  0.407  0.395  0.000  0.000
 1999 249    17   137      0      0     40     0     0   125  0.480  0.538  0.396  0.343  0.381  0.412  0.407  0.395  0.000  0.000
 1999 250    18   151      0      0     56     0     0   125  0.550  0.552  0.459  0.343  0.381  0.412  0.407  0.395  0.000  0.000
 1999 251    19   147      0      0     56     0     0   125  0.466  0.538  0.468  0.345  0.381  0.411  0.407  0.395  0.000  0.000
 1999 252    20   144      0      0     56     0     0   125  0.455  0.511  0.471  0.347  0.381  0.411  0.407  0.395  0.000  0.000
 1999 253    21   143      0      0     56     0     0   125  0.441  0.496  0.471  0.348  0.381  0.411  0.407  0.395  0.000  0.000
 1999 254    22   141      0      0     56     0     0   125  0.434  0.486  0.471  0.350  0.381  0.411  0.407  0.395  0.000  0.000
 1999 255    23   140      0      0     56     0     0   125  0.427  0.478  0.470  0.351  0.382  0.410  0.406  0.395  0.000  0.000
 1999 256    24   147      0      0     67     0     0   125  0.515  0.506  0.469  0.353  0.382  0.410  0.406  0.395  0.000  0.000
 1999 257    25   145      0      0     67     0     0   125  0.472  0.504  0.471  0.354  0.382  0.410  0.406  0.395  0.000  0.000
 1999 258    26   143      0      0     67     0     0   125  0.436  0.495  0.472  0.356  0.382  0.410  0.406  0.395  0.000  0.000
 1999 259    27   142      0      0     67     0     0   125  0.426  0.484  0.472  0.357  0.382  0.409  0.406  0.395  0.000  0.000
 1999 260    28   140      0      0     67     0     0   125  0.419  0.476  0.471  0.359  0.383  0.409  0.406  0.395  0.000  0.000
 1999 261    29   139      0      0     67     0     0   125  0.413  0.470  0.470  0.360  0.383  0.409  0.406  0.394  0.000  0.000
 1999 262    30   139      0      0     67     0     0   125  0.408  0.465  0.469  0.361  0.383  0.409  0.406  0.394  0.000  0.000
 1999 263    31   138      0      0     67     0     0   125  0.403  0.460  0.467  0.362  0.383  0.408  0.406  0.394  0.000  0.000
 1999 264    32   137      0      0     67     0     0   125  0.399  0.456  0.466  0.363  0.383  0.408  0.406  0.394  0.000  0.000
 1999 265    33   136      0      0     67     0     0   125  0.395  0.452  0.464  0.364  0.384  0.408  0.406  0.394  0.000  0.000
 1999 266    34   136      0      0     67     0     0   125  0.391  0.449  0.463  0.365  0.384  0.408  0.405  0.394  0.000  0.000
 1999 267    35   135      0      0     67     0     0   125  0.388  0.446  0.461  0.366  0.384  0.407  0.405  0.394  0.000  0.000
 1999 268    36   134      0      0     67     0     0   125  0.385  0.444  0.460  0.367  0.384  0.407  0.405  0.394  0.000  0.000
 1999 269    37   134      0      0     67     0     0   125  0.382  0.441  0.459  0.368  0.384  0.407  0.405  0.394  0.000  0.000
 1999 270    38   133      0      0     67     0     0   125  0.379  0.439  0.457  0.368  0.385  0.407  0.405  0.394  0.000  0.000
 1999 271    39   133      0      0     67     0     0   125  0.376  0.437  0.456  0.369  0.385  0.407  0.405  0.394  0.000  0.000
 1999 272    40   132      0      0     67     0     0   125  0.373  0.434  0.455  0.370  0.385  0.406  0.405  0.394  0.000  0.000
 1999 273    41   133      0      0     70     0     0   125  0.391  0.432  0.453  0.370  0.385  0.406  0.405  0.394  0.000  0.000
 1999 274    42   149      0      0     88     0     0   125  0.545  0.519  0.452  0.371  0.385  0.406  0.404  0.394  0.000  0.000
 1999 275    43   145      0      0     88     0     0   125  0.452  0.520  0.457  0.371  0.385  0.406  0.404  0.394  0.000  0.000
 1999 276    44   142      0      0     88     0     0   125  0.421  0.500  0.459  0.372  0.386  0.406  0.404  0.394  0.000  0.000
 1999 277    45   140      0      0     88     0     0   125  0.416  0.486  0.460  0.372  0.386  0.405  0.404  0.394  0.000  0.000
 1999 278    46   139      0      0     88     0     0   125  0.410  0.476  0.461  0.373  0.386  0.405  0.404  0.393  0.000  0.000
 1999 279    47   142      0      0     94     0     0   125  0.487  0.468  0.461  0.373  0.386  0.405  0.404  0.393  0.000  0.000
 1999 280    48   150      0      0    103     0     0   125  0.531  0.518  0.461  0.374  0.386  0.405  0.404  0.393  0.000  0.000
 1999 281    49   149      0      0    105     0     0   125  0.492  0.521  0.465  0.375  0.386  0.405  0.404  0.393  0.000  0.000
 1999 282    50   145      0      0    105     0     0   125  0.446  0.508  0.468  0.375  0.387  0.405  0.403  0.393  0.000  0.000
 1999 283    51   142      0      0    105     0     0   125  0.399  0.493  0.469  0.376  0.387  0.404  0.403  0.393  0.000  0.000
 1999 284    52   142      0      0    107     0     0   125  0.433  0.480  0.468  0.377  0.387  0.404  0.403  0.393  0.000  0.000
 1999 285    53   173      0      0    140     0     0   125  0.547  0.561  0.568  0.394  0.387  0.404  0.403  0.393  0.000  0.000
 1999 286    54   195      0      0    163     0     0   125  0.535  0.568  0.564  0.473  0.445  0.408  0.403  0.393  0.000  0.000
 1999 287    55   192      0      1    163     0     0   125  0.511  0.554  0.555  0.459  0.439  0.419  0.408  0.395  0.000  0.000
 1999 288    56   187      0      4    163     0     0   125  0.484  0.537  0.550  0.451  0.436  0.419  0.408  0.395  0.000  0.000
 1999 289    57   182      0      5    163     0     0   125  0.456  0.524  0.542  0.445  0.434  0.419  0.408  0.395  0.000  0.000
 1999 290    58   179      0      6    163     0     0   125  0.455  0.515  0.537  0.442  0.433  0.419  0.408  0.395  0.000  0.000
 1999 291    59   178      0      6    163     0     0   125  0.456  0.509  0.532  0.439  0.433  0.419  0.408  0.395  0.000  0.000
 1999 292    60   176      0      6    163     0     0   125  0.456  0.504  0.528  0.438  0.433  0.419  0.408  0.395  0.000  0.000
 1999 293    61   175      0      6    163     0     0   125  0.456  0.500  0.524  0.436  0.432  0.418  0.408  0.395  0.000  0.000
 1999 294    62   174      0      6    163     0     0   125  0.456  0.497  0.521  0.435  0.432  0.418  0.407  0.395  0.000  0.000
 1999 295    63   172      0      6    163     0     0   125  0.455  0.494  0.518  0.433  0.431  0.418  0.407  0.395  0.000  0.000
 1999 296    64   171      0      6    163     0     0   125  0.454  0.491  0.515  0.432  0.431  0.418  0.407  0.394  0.000  0.000
 1999 297    65   170      0      6    163     0     0   125  0.453  0.489  0.513  0.431  0.430  0.417  0.407  0.394  0.000  0.000
 1999 298    66   169      0      6    163     0     0   125  0.452  0.487  0.510  0.430  0.430  0.417  0.407  0.394  0.000  0.000
 1999 299    67   168      0      6    163     0     0   125  0.450  0.484  0.507  0.428  0.429  0.417  0.406  0.394  0.000  0.000
 1999 300    68   166      0      6    163     0     0   125  0.447  0.481  0.504  0.427  0.428  0.416  0.406  0.394  0.000  0.000
 1999 301    69   165      0      6    163     0     0   125  0.445  0.478  0.501  0.425  0.427  0.416  0.406  0.394  0.000  0.000
 1999 302    70   163      0      6    163     0     0   125  0.442  0.474  0.498  0.423  0.425  0.415  0.405  0.393  0.000  0.000
 1999 303    71   161      0      6    163     0     0   125  0.439  0.472  0.495  0.422  0.424  0.414  0.405  0.393  0.000  0.000
 1999 304    72   159      0      6    163     0     0   125  0.436  0.468  0.492  0.420  0.423  0.414  0.404  0.393  0.000  0.000
 1999 305    73   158      0      6    163     0     0   125  0.434  0.466  0.490  0.418  0.422  0.413  0.404  0.393  0.000  0.000
 1999 306    74   156      0      6    163     0     0   125  0.430  0.461  0.485  0.416  0.420  0.412  0.403  0.392  0.000  0.000
 1999 307    75   153      0      6    163     0     0   125  0.427  0.457  0.481  0.414  0.418  0.411  0.402  0.392  0.000  0.000
 1999 308    76   152      0      6    163     0     0   125  0.424  0.455  0.479  0.413  0.418  0.410  0.402  0.392  0.000  0.000
 1999 309    77   149      0      6    163     0     0   125  0.420  0.449  0.474  0.410  0.415  0.409  0.401  0.391  0.000  0.000
 1999 310    78   146      0      6    163     0     0   125  0.415  0.443  0.468  0.407  0.413  0.407  0.400  0.390  0.000  0.000
 1999 311    79   144      0      6    164     0     0   125  0.423  0.441  0.464  0.405  0.411  0.406  0.399  0.390  0.000  0.000
 1999 312    80   141      0      6    164     0     0   125  0.416  0.437  0.459  0.402  0.409  0.405  0.398  0.389  0.000  0.000
 1999 313    81   138      0      6    164     0     0   125  0.410  0.434  0.453  0.400  0.407  0.403  0.397  0.388  0.000  0.000
 1999 314    82   135      0      6    164     0     0   125  0.405  0.430  0.447  0.397  0.404  0.402  0.395  0.387  0.000  0.000
 1999 315    83   131      0      6    164     0     0   125  0.400  0.426  0.439  0.394  0.401  0.400  0.394  0.386  0.000  0.000
 1999 316    84   127      0      6    164     0     0   125  0.394  0.421  0.433  0.390  0.398  0.398  0.392  0.385  0.000  0.000
 1999 317    85   123      0      6    164     0     0   125  0.389  0.417  0.427  0.387  0.395  0.395  0.390  0.383  0.000  0.000
 1999 318    86   120      0      6    164     0     0   125  0.384  0.412  0.422  0.384  0.391  0.393  0.388  0.382  0.000  0.000
 1999 319    87   115      0      6    164     0     0   125  0.379  0.407  0.416  0.380  0.387  0.390  0.385  0.380  0.000  0.000
 1999 320    88   110      0      6    164     0     0   125  0.373  0.402  0.410  0.376  0.383  0.387  0.382  0.377  0.000  0.000
 1999 321    89   106      0      6    164     0     0   125  0.368  0.398  0.405  0.372  0.380  0.383  0.379  0.375  0.000  0.000
 1999 322    90   102      0      6    164     0     0   125  0.363  0.393  0.401  0.368  0.376  0.380  0.377  0.372  0.000  0.000
 1999 323    91    97      0      6    164     0     0   125  0.358  0.390  0.397  0.365  0.373  0.377  0.374  0.370  0.000  0.000
 1999 324    92    93      0      6    164     0     0   125  0.353  0.386  0.393  0.362  0.369  0.374  0.371  0.368  0.000  0.000
 1999 325    93    88      0      6    164     0     0   125  0.348  0.381  0.388  0.358  0.365  0.370  0.367  0.364  0.000  0.000
 1999 326    94    83      0      6    164     0     0   125  0.343  0.376  0.383  0.354  0.361  0.366  0.363  0.361  0.000  0.000
 1999 327    95    81      0      6    165     0     0   125  0.348  0.374  0.380  0.351  0.358  0.364  0.361  0.359  0.000  0.000
 1999 328    96    76      0      6    165     0     0   125  0.342  0.370  0.376  0.348  0.355  0.360  0.358  0.356  0.000  0.000
 1999 329    97    90      0      6    185     0     0   125  0.528  0.447  0.373  0.345  0.352  0.358  0.356  0.354  0.000  0.000
 1999 330    98    90      0      6    187     0     0   125  0.511  0.453  0.375  0.345  0.352  0.357  0.355  0.353  0.000  0.000
 1999 331    99    84      0      6    187     0     0   125  0.444  0.437  0.376  0.344  0.351  0.357  0.355  0.353  0.000  0.000
 1999 332   100    77      0      6    187     0     0   125  0.391  0.408  0.375  0.342  0.350  0.355  0.353  0.352  0.000  0.000
 1999 333   101    71      0      6    187     0     0   125  0.366  0.388  0.371  0.339  0.347  0.352  0.351  0.349  0.000  0.000
 1999 334   102    64      0      6    187     0     0   125  0.346  0.374  0.366  0.335  0.342  0.348  0.346  0.345  0.000  0.000
 1999 335   103    59      0      6    187     0     0   125  0.331  0.368  0.363  0.333  0.339  0.345  0.344  0.343  0.000  0.000
 1999 336   104    71      0      6    200     0     0   125  0.556  0.383  0.362  0.332  0.338  0.344  0.343  0.342  0.000  0.000
 1999 337   105    71      0      6    205     0     0   125  0.480  0.431  0.361  0.331  0.338  0.343  0.342  0.341  0.000  0.000
 1999 338   106    64      0      6    205     0     0   125  0.389  0.411  0.361  0.330  0.337  0.343  0.341  0.340  0.000  0.000
 1999 339   107    66      0      6    209     0     0   125  0.460  0.400  0.361  0.329  0.336  0.342  0.341  0.340  0.000  0.000
 1999 340   108    59      0      6    209     0     0   125  0.364  0.394  0.361  0.328  0.335  0.341  0.340  0.339  0.000  0.000
 1999 341   109    55      0      6    209     0     0   125  0.331  0.381  0.359  0.326  0.333  0.339  0.338  0.337  0.000  0.000
 1999 342   110    48      0      6    209     0     0   125  0.296  0.368  0.355  0.324  0.330  0.336  0.335  0.335  0.000  0.000
 1999 343   111    42      0      6    209     0     0   125  0.248  0.361  0.352  0.321  0.327  0.333  0.332  0.332  0.000  0.000
 1999 344   112    37      0      6    209     0     0   125  0.220  0.355  0.350  0.319  0.325  0.331  0.330  0.330  0.000  0.000
 1999 345   113    34      0      6    209     0     0   125  0.220  0.351  0.347  0.316  0.323  0.329  0.328  0.328  0.000  0.000
 1999 346   114    48      0      6    225     0     0   125  0.540  0.347  0.345  0.315  0.321  0.327  0.326  0.326  0.000  0.000
 1999 347   115    47      0      6    228     0     0   125  0.489  0.372  0.345  0.314  0.320  0.326  0.325  0.326  0.000  0.000
 1999 348   116    40      0      6    228     0     0   125  0.362  0.373  0.344  0.313  0.319  0.325  0.325  0.325  0.000  0.000
 1999 349   117    35      0      6    228     0     0   125  0.312  0.364  0.343  0.312  0.317  0.323  0.323  0.323  0.000  0.000
 1999 350   118    30      0      6    228     0     0   125  0.254  0.358  0.341  0.310  0.316  0.322  0.321  0.322  0.000  0.000
 1999 351   119    26      0      6    228     0     0   125  0.225  0.353  0.340  0.309  0.314  0.320  0.320  0.320  0.000  0.000
 1999 352   120    24      0      6    228     0     0   125  0.220  0.350  0.339  0.307  0.313  0.319  0.319  0.319  0.000  0.000
 1999 353   121    23      0      6    228     0     0   125  0.220  0.347  0.337  0.306  0.312  0.318  0.317  0.318  0.000  0.000
 1999 354   122    21      0      6    228     0     0   125  0.220  0.344  0.336  0.305  0.311  0.317  0.316  0.317  0.000  0.000
 1999 355   123    20      0      6    228     0     0   125  0.220  0.342  0.335  0.304  0.310  0.315  0.315  0.316  0.000  0.000
 1999 356   124    18      0      6    228     0     0   125  0.220  0.340  0.334  0.303  0.309  0.314  0.314  0.315  0.000  0.000
 1999 357   125    17      0      6    228     0     0   125  0.220  0.338  0.334  0.302  0.308  0.313  0.313  0.314  0.000  0.000
 1999 358   126    16      0      6    228     0     0   125  0.219  0.336  0.333  0.302  0.307  0.313  0.312  0.313  0.000  0.000
 1999 359   127    15      0      6    228     0     0   125  0.219  0.335  0.332  0.301  0.306  0.312  0.311  0.312  0.000  0.000
 1999 360   128    14      0      6    228     0     0   125  0.219  0.334  0.331  0.300  0.305  0.311  0.311  0.311  0.000  0.000
 1999 361   129    14      0      6    229     0     0   125  0.239  0.333  0.331  0.299  0.305  0.310  0.310  0.311  0.000  0.000
 1999 362   130    13      0      6    230     0     0   125  0.239  0.332  0.331  0.299  0.304  0.309  0.309  0.310  0.000  0.000
 1999 363   131    15      0      6    234     0     0   125  0.287  0.331  0.331  0.298  0.303  0.309  0.308  0.309  0.000  0.000
 1999 364   132    13      0      6    234     0     0   125  0.263  0.331  0.331  0.297  0.303  0.308  0.308  0.309  0.000  0.000
 1999 365   133    11      0      6    234     0     0   125  0.232  0.331  0.331  0.297  0.302  0.307  0.307  0.308  0.000  0.000
 2000 001   134    10      0      6    234     0     0   125  0.219  0.331  0.331  0.296  0.301  0.307  0.307  0.307  0.000  0.000
 2000 002   135     9      0      6    234     0     0   125  0.219  0.331  0.331  0.296  0.301  0.306  0.306  0.307  0.000  0.000
 2000 003   136     9      0      6    234     0     0   125  0.219  0.331  0.331  0.295  0.300  0.306  0.305  0.306  0.000  0.000
 2000 004   137     8      0      6    234     0     0   125  0.219  0.331  0.331  0.295  0.300  0.305  0.305  0.306  0.000  0.000
 2000 005   138     8      0      6    234     0     0   125  0.219  0.331  0.331  0.294  0.299  0.305  0.304  0.305  0.000  0.000
 2000 006   139     7      0      6    234     0     0   125  0.219  0.331  0.331  0.294  0.299  0.304  0.304  0.305  0.000  0.000
 2000 007   140     7      0      6    234     0     0   125  0.219  0.331  0.331  0.294  0.298  0.304  0.303  0.304  0.000  0.000
 2000 008   141     7      0      6    234     0     0   125  0.219  0.331  0.331  0.293  0.298  0.303  0.303  0.304  0.000  0.000
 2000 009   142     7      0      6    234     0     0   125  0.235  0.331  0.331  0.293  0.298  0.303  0.303  0.303  0.000  0.000
 2000 010   143     7      0      6    235     0     0   125  0.239  0.331  0.331  0.293  0.297  0.302  0.302  0.303  0.000  0.000
 2000 011   144     5      0      6    235     0     0   125  0.219  0.331  0.331  0.292  0.297  0.302  0.302  0.302  0.000  0.000
 2000 012   145     5      0      6    235     0     0   125  0.219  0.331  0.331  0.292  0.297  0.302  0.301  0.302  0.000  0.000
 2000 013   146    13      0      6    243     0     0   125  0.379  0.331  0.331  0.292  0.296  0.301  0.301  0.301  0.000  0.000
 2000 014   147    38      0      6    271     0     0   125  0.535  0.512  0.331  0.291  0.296  0.301  0.301  0.301  0.000  0.000
 2000 015   148    33      0      6    271     0     0   125  0.429  0.503  0.334  0.291  0.296  0.301  0.301  0.301  0.000  0.000
 2000 016   149    38      0      6    282     0     0   125  0.487  0.522  0.339  0.291  0.296  0.301  0.301  0.301  0.000  0.000
 2000 017   150    36      0      6    282     0     0   125  0.469  0.503  0.342  0.291  0.296  0.301  0.301  0.301  0.000  0.000
 2000 018   151    31      0      6    282     0     0   125  0.414  0.480  0.344  0.291  0.296  0.301  0.301  0.301  0.000  0.000
 2000 019   152    28      0      6    282     0     0   125  0.398  0.458  0.346  0.291  0.296  0.301  0.301  0.301  0.000  0.000
 2000 020   153    26      0      6    282     0     0   125  0.385  0.441  0.347  0.291  0.296  0.301  0.301  0.301  0.000  0.000
 2000 021   154    24      0      6    282     0     0   125  0.372  0.429  0.348  0.291  0.296  0.301  0.301  0.300  0.000  0.000
 2000 022   155    23      0      6    282     0     0   125  0.361  0.423  0.349  0.292  0.296  0.301  0.301  0.300  0.000  0.000
 2000 023   156    22      0      6    282     0     0   125  0.351  0.414  0.350  0.292  0.296  0.301  0.301  0.300  0.000  0.000
 2000 024   157    21      0      6    282     0     0   125  0.342  0.409  0.350  0.292  0.296  0.301  0.301  0.300  0.000  0.000

*DSSAT Cropping System Model Ver. 4.0.2.000               Aug 23, 2016; 20:22:27

*RUN   2        : UYSB                    
 MODEL          : CRGRO040 - Soybean         
 EXPERIMENT     : UYSB0397 SB    late to create DSS                             
 TREATMENT  1   : UYSB                    

@YEAR DOY   DAS  SWXD   ROFC   DRNC   PREC  IR#C  IRRC  DTWT   SW1D   SW2D   SW3D   SW4D   SW5D   SW6D   SW7D   SW8D   SW9D   SW10
 2000 232     0   117      0      0      0     0     0   125  0.368  0.394  0.394  0.335  0.375  0.419  0.408  0.395  0.000  0.000
 2000 233     1   122      0      0      6     0     0   125  0.470  0.393  0.394  0.335  0.376  0.418  0.408  0.395  0.000  0.000
 2000 234     2   124      0      0     10     0     0   125  0.497  0.399  0.394  0.336  0.376  0.418  0.408  0.395  0.000  0.000
 2000 235     3   123      0      0     12     0     0   125  0.474  0.406  0.394  0.336  0.377  0.417  0.408  0.395  0.000  0.000
 2000 236     4   126      0      0     17     0     0   125  0.514  0.415  0.395  0.337  0.377  0.417  0.408  0.395  0.000  0.000
 2000 237     5   145      0      0     37     0     0   125  0.524  0.576  0.407  0.337  0.378  0.416  0.408  0.395  0.000  0.000
 2000 238     6   144      0      0     37     0     0   125  0.518  0.545  0.423  0.338  0.378  0.416  0.408  0.395  0.000  0.000
 2000 239     7   140      0      0     37     0     0   125  0.468  0.525  0.429  0.339  0.378  0.415  0.408  0.395  0.000  0.000
 2000 240     8   138      0      0     37     0     0   125  0.449  0.504  0.432  0.340  0.378  0.415  0.408  0.395  0.000  0.000
 2000 241     9   136      0      0     37     0     0   125  0.431  0.490  0.435  0.341  0.379  0.415  0.408  0.395  0.000  0.000
 2000 242    10   134      0      0     37     0     0   125  0.422  0.479  0.436  0.342  0.379  0.414  0.408  0.395  0.000  0.000
 2000 243    11   133      0      0     37     0     0   125  0.415  0.470  0.437  0.343  0.379  0.414  0.407  0.395  0.000  0.000
 2000 244    12   133      0      0     37     0     0   125  0.408  0.463  0.438  0.344  0.380  0.414  0.407  0.395  0.000  0.000
 2000 245    13   132      0      0     37     0     0   125  0.402  0.457  0.438  0.344  0.380  0.413  0.407  0.395  0.000  0.000
 2000 246    14   131      0      0     37     0     0   125  0.397  0.452  0.438  0.345  0.380  0.413  0.407  0.395  0.000  0.000
 2000 247    15   130      0      0     37     0     0   125  0.391  0.447  0.438  0.346  0.380  0.413  0.407  0.395  0.000  0.000
 2000 248    16   130      0      0     37     0     0   125  0.386  0.443  0.438  0.347  0.381  0.412  0.407  0.395  0.000  0.000
 2000 249    17   129      0      0     37     0     0   125  0.382  0.440  0.437  0.348  0.381  0.412  0.407  0.395  0.000  0.000
 2000 250    18   129      0      0     37     0     0   125  0.377  0.436  0.437  0.349  0.381  0.412  0.407  0.395  0.000  0.000
 2000 251    19   128      0      0     37     0     0   125  0.373  0.433  0.436  0.350  0.381  0.411  0.407  0.395  0.000  0.000
 2000 252    20   127      0      0     37     0     0   125  0.369  0.430  0.436  0.351  0.381  0.411  0.407  0.395  0.000  0.000
 2000 253    21   138      0      0     49     0     0   125  0.546  0.448  0.435  0.351  0.382  0.411  0.407  0.395  0.000  0.000
 2000 254    22   181      0      0     95     0     0   125  0.482  0.581  0.569  0.439  0.382  0.411  0.407  0.395  0.000  0.000
 2000 255    23   179      0      0     95     0     0   125  0.483  0.545  0.558  0.438  0.405  0.410  0.406  0.395  0.000  0.000
 2000 256    24   177      0      0     95     0     0   125  0.489  0.529  0.548  0.437  0.413  0.410  0.406  0.395  0.000  0.000
 2000 257    25   198      0      0    117     0     0   125  0.563  0.565  0.564  0.469  0.446  0.415  0.406  0.395  0.000  0.000
 2000 258    26   209      0      0    129     0     0   125  0.544  0.568  0.568  0.470  0.460  0.434  0.417  0.399  0.000  0.000
 2000 259    27   198      0      9    129     0     0   125  0.513  0.557  0.557  0.457  0.449  0.428  0.413  0.397  0.000  0.000
 2000 260    28   190      0     15    129     0     0   125  0.480  0.539  0.551  0.449  0.442  0.424  0.411  0.397  0.000  0.000
 2000 261    29   185      0     17    129     0     0   125  0.478  0.525  0.544  0.445  0.437  0.422  0.410  0.397  0.000  0.000
 2000 262    30   203      0     18    148     0     0   125  0.557  0.565  0.564  0.469  0.447  0.424  0.413  0.398  0.000  0.000
 2000 263    31   220      1     30    182     0     0   125  0.499  0.568  0.568  0.470  0.460  0.447  0.439  0.432  0.000  0.000
 2000 264    32   221      1     35    190     0     0   125  0.541  0.559  0.568  0.470  0.460  0.445  0.439  0.432  0.000  0.000
 2000 265    33   205      1     49    190     0     0   125  0.502  0.552  0.557  0.457  0.449  0.435  0.427  0.417  0.000  0.000
 2000 266    34   193      1     57    190     0     0   125  0.459  0.534  0.550  0.449  0.442  0.428  0.419  0.408  0.000  0.000
 2000 267    35   191      1     59    192     0     0   125  0.499  0.520  0.542  0.447  0.441  0.427  0.420  0.408  0.000  0.000
 2000 268    36   186      1     63    192     0     0   125  0.470  0.521  0.538  0.443  0.437  0.424  0.415  0.403  0.000  0.000
 2000 269    37   182      1     65    192     0     0   125  0.469  0.514  0.534  0.440  0.434  0.422  0.412  0.400  0.000  0.000
 2000 270    38   180      1     66    192     0     0   125  0.469  0.510  0.530  0.439  0.433  0.422  0.411  0.398  0.000  0.000
 2000 271    39   179      1     66    192     0     0   125  0.469  0.506  0.528  0.438  0.433  0.422  0.411  0.398  0.000  0.000
 2000 272    40   178      1     66    192     0     0   125  0.468  0.504  0.525  0.437  0.433  0.422  0.410  0.398  0.000  0.000
 2000 273    41   177      1     66    192     0     0   125  0.468  0.501  0.523  0.436  0.433  0.422  0.410  0.398  0.000  0.000
 2000 274    42   188      1     66    207     0     0   125  0.489  0.566  0.542  0.436  0.433  0.422  0.410  0.398  0.000  0.000
 2000 275    43   184      1     66    207     0     0   125  0.464  0.537  0.542  0.438  0.432  0.422  0.410  0.398  0.000  0.000
 2000 276    44   212      1     67    238     0     0   125  0.553  0.563  0.566  0.470  0.460  0.440  0.424  0.403  0.000  0.000
 2000 277    45   218      1     69    247     0     0   125  0.520  0.568  0.568  0.470  0.460  0.447  0.438  0.412  0.000  0.000
 2000 278    46   201      1     82    247     0     0   125  0.459  0.548  0.557  0.457  0.449  0.436  0.426  0.405  0.000  0.000
 2000 279    47   190      1     89    247     0     0   125  0.445  0.525  0.548  0.449  0.441  0.429  0.419  0.401  0.000  0.000
 2000 280    48   184      1     93    247     0     0   125  0.453  0.515  0.540  0.445  0.437  0.425  0.414  0.399  0.000  0.000
 2000 281    49   181      1     96    247     0     0   125  0.456  0.509  0.534  0.441  0.435  0.422  0.412  0.397  0.000  0.000
 2000 282    50   181      1     96    253     0     0   125  0.488  0.512  0.530  0.439  0.434  0.422  0.412  0.398  0.000  0.000
 2000 283    51   199      1     96    273     0     0   125  0.548  0.566  0.566  0.457  0.441  0.422  0.413  0.399  0.000  0.000
 2000 284    52   189      1    102    273     0     0   125  0.448  0.556  0.556  0.449  0.437  0.421  0.411  0.397  0.000  0.000
 2000 285    53   183      1    104    273     0     0   125  0.439  0.527  0.548  0.444  0.434  0.421  0.411  0.397  0.000  0.000
 2000 286    54   181      1    105    273     0     0   125  0.449  0.515  0.539  0.442  0.433  0.421  0.411  0.397  0.000  0.000
 2000 287    55   179      1    105    273     0     0   125  0.454  0.509  0.534  0.439  0.433  0.421  0.410  0.397  0.000  0.000
 2000 288    56   178      1    105    273     0     0   125  0.457  0.505  0.530  0.438  0.432  0.421  0.410  0.397  0.000  0.000
 2000 289    57   179      1    105    277     0     0   125  0.504  0.502  0.527  0.437  0.432  0.420  0.410  0.397  0.000  0.000
 2000 290    58   185      1    105    284     0     0   125  0.517  0.551  0.526  0.436  0.432  0.420  0.410  0.397  0.000  0.000
 2000 291    59   182      1    105    284     0     0   125  0.486  0.533  0.531  0.435  0.432  0.420  0.410  0.397  0.000  0.000
 2000 292    60   180      1    105    284     0     0   125  0.482  0.521  0.530  0.435  0.432  0.420  0.410  0.397  0.000  0.000
 2000 293    61   192      1    105    300     0     0   125  0.526  0.563  0.558  0.443  0.433  0.421  0.410  0.397  0.000  0.000
 2000 294    62   188      1    107    300     0     0   125  0.503  0.547  0.552  0.441  0.433  0.421  0.410  0.397  0.000  0.000
 2000 295    63   184      1    108    300     0     0   125  0.465  0.532  0.545  0.440  0.433  0.421  0.410  0.397  0.000  0.000
 2000 296    64   217      1    109    336     0     0   125  0.550  0.564  0.564  0.470  0.460  0.447  0.434  0.407  0.000  0.000
 2000 297    65   213      1    112    336     0     0   125  0.519  0.557  0.559  0.464  0.459  0.441  0.438  0.415  0.000  0.000
 2000 298    66   200      1    123    336     0     0   125  0.505  0.541  0.552  0.453  0.448  0.432  0.426  0.407  0.000  0.000
 2000 299    67   220      1    145    382     0     0   125  0.526  0.561  0.565  0.470  0.460  0.447  0.439  0.432  0.000  0.000
 2000 300    68   221      1    158    398     0     0   125  0.530  0.560  0.567  0.470  0.460  0.447  0.439  0.432  0.000  0.000
 2000 301    69   201      1    172    398     0     0   125  0.444  0.545  0.555  0.456  0.448  0.435  0.426  0.417  0.000  0.000
 2000 302    70   189      1    179    398     0     0   125  0.448  0.521  0.544  0.448  0.440  0.428  0.418  0.408  0.000  0.000
 2000 303    71   183      1    183    398     0     0   125  0.450  0.511  0.536  0.443  0.436  0.424  0.414  0.402  0.000  0.000
 2000 304    72   178      1    185    398     0     0   125  0.450  0.504  0.529  0.439  0.433  0.421  0.411  0.399  0.000  0.000
 2000 305    73   175      1    186    398     0     0   125  0.448  0.498  0.523  0.437  0.432  0.420  0.410  0.397  0.000  0.000
 2000 306    74   189      1    186    413     0     0   125  0.553  0.565  0.533  0.435  0.431  0.420  0.410  0.397  0.000  0.000
 2000 307    75   184      1    186    413     0     0   125  0.474  0.551  0.541  0.434  0.431  0.419  0.410  0.397  0.000  0.000
 2000 308    76   178      1    186    413     0     0   125  0.449  0.525  0.536  0.434  0.429  0.418  0.409  0.396  0.000  0.000
 2000 309    77   175      1    186    413     0     0   125  0.445  0.511  0.530  0.433  0.428  0.418  0.408  0.396  0.000  0.000
 2000 310    78   172      1    186    413     0     0   125  0.442  0.500  0.522  0.431  0.426  0.416  0.407  0.396  0.000  0.000
 2000 311    79   168      1    186    413     0     0   125  0.438  0.492  0.515  0.428  0.425  0.415  0.407  0.395  0.000  0.000
 2000 312    80   168      1    186    415     0     0   125  0.461  0.486  0.511  0.427  0.424  0.414  0.406  0.395  0.000  0.000
 2000 313    81   165      1    186    415     0     0   125  0.447  0.483  0.507  0.425  0.423  0.414  0.405  0.395  0.000  0.000
 2000 314    82   163      1    186    415     0     0   125  0.440  0.480  0.504  0.423  0.422  0.413  0.405  0.394  0.000  0.000
 2000 315    83   160      1    186    415     0     0   125  0.432  0.474  0.497  0.421  0.420  0.412  0.404  0.394  0.000  0.000
 2000 316    84   178      1    186    438     0     0   125  0.513  0.562  0.538  0.418  0.418  0.410  0.403  0.393  0.000  0.000
 2000 317    85   172      1    186    438     0     0   125  0.474  0.537  0.537  0.420  0.417  0.409  0.402  0.393  0.000  0.000
 2000 318    86   168      1    186    438     0     0   125  0.461  0.519  0.530  0.419  0.415  0.408  0.402  0.392  0.000  0.000
 2000 319    87   164      1    186    438     0     0   125  0.447  0.506  0.521  0.418  0.414  0.407  0.400  0.392  0.000  0.000
 2000 320    88   160      1    186    438     0     0   125  0.439  0.495  0.513  0.416  0.412  0.406  0.400  0.391  0.000  0.000
 2000 321    89   155      1    186    438     0     0   125  0.432  0.484  0.504  0.414  0.409  0.404  0.398  0.390  0.000  0.000
 2000 322    90   150      1    186    438     0     0   125  0.424  0.473  0.495  0.410  0.407  0.402  0.396  0.389  0.000  0.000
 2000 323    91   145      1    186    438     0     0   125  0.416  0.462  0.485  0.406  0.403  0.400  0.395  0.388  0.000  0.000
 2000 324    92   142      1    186    441     0     0   125  0.434  0.452  0.475  0.402  0.401  0.398  0.393  0.387  0.000  0.000
 2000 325    93   137      1    186    441     0     0   125  0.417  0.443  0.466  0.398  0.398  0.397  0.392  0.386  0.000  0.000
 2000 326    94   131      1    186    441     0     0   125  0.404  0.434  0.455  0.394  0.395  0.395  0.390  0.384  0.000  0.000
 2000 327    95   127      1    186    441     0     0   125  0.394  0.428  0.446  0.391  0.393  0.393  0.389  0.383  0.000  0.000
 2000 328    96   144      1    186    464     0     0   125  0.512  0.554  0.444  0.388  0.391  0.392  0.387  0.382  0.000  0.000
 2000 329    97   140      1    186    464     0     0   125  0.501  0.523  0.451  0.387  0.390  0.391  0.387  0.381  0.000  0.000
 2000 330    98   134      1    186    464     0     0   125  0.460  0.501  0.447  0.385  0.389  0.390  0.386  0.380  0.000  0.000
 2000 331    99   127      1    186    464     0     0   125  0.409  0.480  0.440  0.383  0.387  0.388  0.384  0.379  0.000  0.000
 2000 332   100   124      1    186    464     0     0   125  0.399  0.466  0.438  0.382  0.386  0.388  0.384  0.379  0.000  0.000
 2000 333   101   123      1    186    465     0     0   125  0.404  0.456  0.437  0.381  0.386  0.387  0.384  0.378  0.000  0.000
 2000 334   102   120      1    186    465     0     0   125  0.389  0.445  0.434  0.380  0.385  0.386  0.383  0.378  0.000  0.000
 2000 335   103   114      1    186    465     0     0   125  0.377  0.426  0.426  0.377  0.382  0.385  0.381  0.376  0.000  0.000
 2000 336   104   109      1    186    465     0     0   125  0.365  0.416  0.418  0.374  0.380  0.383  0.379  0.374  0.000  0.000
 2000 337   105   104      1    186    465     0     0   125  0.353  0.406  0.410  0.370  0.376  0.379  0.376  0.372  0.000  0.000
 2000 338   106   113      1    186    479     0     0   125  0.534  0.434  0.406  0.368  0.374  0.378  0.375  0.371  0.000  0.000
 2000 339   107   110      1    186    479     0     0   125  0.479  0.441  0.406  0.367  0.373  0.377  0.374  0.370  0.000  0.000
 2000 340   108   104      1    186    479     0     0   125  0.407  0.430  0.405  0.365  0.372  0.376  0.373  0.369  0.000  0.000
 2000 341   109    98      1    186    479     0     0   125  0.355  0.415  0.402  0.363  0.370  0.374  0.371  0.367  0.000  0.000
 2000 342   110    92      1    186    479     0     0   125  0.324  0.402  0.397  0.360  0.367  0.371  0.369  0.365  0.000  0.000
 2000 343   111    87      1    186    479     0     0   125  0.303  0.394  0.392  0.357  0.364  0.369  0.366  0.363  0.000  0.000
 2000 344   112    80      1    186    479     0     0   125  0.286  0.384  0.385  0.353  0.359  0.364  0.362  0.360  0.000  0.000
 2000 345   113    75      1    186    479     0     0   125  0.271  0.378  0.380  0.349  0.356  0.361  0.359  0.357  0.000  0.000
 2000 346   114    71      1    186    479     0     0   125  0.258  0.374  0.377  0.346  0.353  0.358  0.356  0.354  0.000  0.000
 2000 347   115    66      1    186    479     0     0   125  0.245  0.369  0.372  0.343  0.349  0.355  0.353  0.351  0.000  0.000
 2000 348   116   118      1    186    538     0     0   125  0.543  0.562  0.523  0.338  0.345  0.350  0.349  0.348  0.000  0.000
 2000 349   117   113      1    186    538     0     0   125  0.492  0.539  0.517  0.342  0.345  0.350  0.348  0.347  0.000  0.000
 2000 350   118   117      1    186    547     0     0   125  0.537  0.546  0.521  0.345  0.344  0.350  0.348  0.347  0.000  0.000
 2000 351   119   110      1    186    547     0     0   125  0.481  0.525  0.509  0.348  0.344  0.350  0.348  0.347  0.000  0.000
 2000 352   120   104      1    186    547     0     0   125  0.451  0.497  0.493  0.350  0.344  0.349  0.348  0.346  0.000  0.000
 2000 353   121    96      1    186    547     0     0   125  0.399  0.475  0.476  0.351  0.344  0.349  0.348  0.346  0.000  0.000
 2000 354   122    90      1    186    547     0     0   125  0.384  0.453  0.459  0.351  0.343  0.349  0.347  0.345  0.000  0.000
 2000 355   123    87      1    186    550     0     0   125  0.405  0.434  0.442  0.351  0.343  0.348  0.347  0.345  0.000  0.000
 2000 356   124    89      1    186    554     0     0   125  0.471  0.429  0.437  0.351  0.343  0.348  0.347  0.345  0.000  0.000
 2000 357   125    82      1    186    554     0     0   125  0.399  0.423  0.422  0.351  0.343  0.348  0.346  0.344  0.000  0.000
 2000 358   126    83      1    186    558     0     0   125  0.465  0.416  0.416  0.350  0.343  0.347  0.346  0.344  0.000  0.000
 2000 359   127    77      1    186    558     0     0   125  0.385  0.411  0.408  0.349  0.342  0.347  0.346  0.344  0.000  0.000
 2000 360   128    70      1    186    558     0     0   125  0.352  0.395  0.395  0.346  0.341  0.345  0.344  0.342  0.000  0.000
 2000 361   129   100      1    186    596     0     0   125  0.503  0.556  0.451  0.343  0.339  0.344  0.343  0.341  0.000  0.000
 2000 362   130   117      1    186    615     0     0   125  0.564  0.545  0.547  0.346  0.339  0.344  0.342  0.341  0.000  0.000
 2000 363   131   114      1    186    615     0     0   125  0.520  0.538  0.534  0.355  0.339  0.343  0.342  0.340  0.000  0.000
 2000 364   132   114      1    186    619     0     0   125  0.549  0.535  0.526  0.358  0.339  0.343  0.342  0.340  0.000  0.000
 2000 365   133   107      1    186    619     0     0   125  0.474  0.524  0.512  0.361  0.339  0.343  0.342  0.340  0.000  0.000
 2000 366   134   100      1    186    619     0     0   125  0.438  0.496  0.494  0.362  0.339  0.343  0.342  0.340  0.000  0.000
 2001 001   135    93      1    186    619     0     0   125  0.392  0.473  0.477  0.362  0.339  0.343  0.342  0.339  0.000  0.000
 2001 002   136    86      1    186    619     0     0   125  0.377  0.448  0.456  0.362  0.339  0.342  0.341  0.339  0.000  0.000
 2001 003   137    80      1    186    619     0     0   125  0.363  0.425  0.436  0.361  0.339  0.342  0.341  0.339  0.000  0.000
 2001 004   138    87      1    186    631     0     0   125  0.529  0.433  0.424  0.359  0.339  0.342  0.341  0.338  0.000  0.000
 2001 005   139    79      1    186    631     0     0   125  0.419  0.430  0.415  0.358  0.339  0.341  0.341  0.338  0.000  0.000
 2001 006   140    75      1    186    635     0     0   125  0.420  0.412  0.407  0.355  0.338  0.341  0.340  0.338  0.000  0.000
 2001 007   141   120      1    186    682     0     0   125  0.537  0.564  0.555  0.365  0.338  0.341  0.340  0.337  0.000  0.000
 2001 008   142   115      1    186    682     0     0   125  0.492  0.544  0.537  0.379  0.339  0.340  0.340  0.337  0.000  0.000
 2001 009   143   130      1    186    703     0     0   125  0.520  0.549  0.554  0.445  0.343  0.340  0.340  0.337  0.000  0.000
 2001 010   144   145      1    186    721     0     0   125  0.565  0.557  0.565  0.466  0.394  0.340  0.340  0.337  0.000  0.000
 2001 011   145   138      1    186    721     0     0   125  0.486  0.542  0.546  0.450  0.420  0.340  0.339  0.337  0.000  0.000
 2001 012   146   132      1    186    721     0     0   125  0.465  0.518  0.532  0.440  0.423  0.341  0.339  0.336  0.000  0.000
 2001 013   147   128      1    186    723     0     0   125  0.483  0.503  0.521  0.436  0.419  0.341  0.339  0.336  0.000  0.000
 2001 014   148   145      1    186    744     0     0   125  0.533  0.562  0.561  0.446  0.425  0.341  0.339  0.336  0.000  0.000
 2001 015   149   139      1    186    744     0     0   125  0.477  0.542  0.546  0.439  0.428  0.346  0.339  0.336  0.000  0.000
 2001 016   150   133      1    186    744     0     0   125  0.473  0.517  0.532  0.435  0.425  0.347  0.339  0.336  0.000  0.000
 2001 017   151   134      1    186    748     0     0   125  0.533  0.509  0.525  0.432  0.423  0.347  0.339  0.336  0.000  0.000
 2001 018   152   133      1    186    750     0     0   125  0.514  0.521  0.521  0.430  0.421  0.347  0.339  0.336  0.000  0.000
 2001 019   153   129      1    186    750     0     0   125  0.482  0.515  0.517  0.428  0.418  0.347  0.339  0.336  0.000  0.000
 2001 020   154   123      1    186    750     0     0   125  0.449  0.498  0.506  0.422  0.414  0.348  0.339  0.335  0.000  0.000
 2001 021   155   116      1    186    750     0     0   125  0.415  0.481  0.495  0.417  0.409  0.348  0.339  0.335  0.000  0.000
 2001 022   156   113      1    186    750     0     0   125  0.403  0.471  0.489  0.414  0.407  0.348  0.339  0.335  0.000  0.000
 2001 023   157   107      1    186    750     0     0   125  0.393  0.455  0.476  0.408  0.401  0.348  0.339  0.335  0.000  0.000
 2001 024   158   102      1    186    750     0     0   125  0.383  0.440  0.463  0.401  0.397  0.348  0.339  0.335  0.000  0.000
 2001 025   159    96      1    186    750     0     0   125  0.373  0.428  0.449  0.395  0.393  0.348  0.339  0.334  0.000  0.000
 2001 026   160   100      1    186    760     0     0   125  0.514  0.427  0.438  0.391  0.390  0.348  0.338  0.334  0.000  0.000
 2001 027   161   111      1    186    773     0     0   125  0.522  0.538  0.436  0.389  0.389  0.348  0.338  0.334  0.000  0.000
 2001 028   162   109      1    186    773     0     0   125  0.513  0.520  0.440  0.387  0.388  0.348  0.338  0.334  0.000  0.000
 2001 029   163   103      1    186    773     0     0   125  0.437  0.503  0.438  0.385  0.386  0.348  0.338  0.334  0.000  0.000
 2001 030   164    97      1    186    773     0     0   125  0.402  0.478  0.434  0.383  0.384  0.348  0.338  0.334  0.000  0.000
 2001 031   165    92      1    186    773     0     0   125  0.380  0.458  0.429  0.380  0.382  0.348  0.338  0.334  0.000  0.000
 2001 032   166    90      1    186    773     0     0   125  0.366  0.444  0.427  0.379  0.380  0.348  0.338  0.334  0.000  0.000
 2001 033   167    86      1    186    773     0     0   125  0.354  0.430  0.424  0.377  0.379  0.347  0.338  0.333  0.000  0.000
 2001 034   168    84      1    186    773     0     0   125  0.343  0.422  0.421  0.375  0.378  0.347  0.338  0.333  0.000  0.000
 2001 035   169    82      1    186    773     0     0   125  0.333  0.416  0.418  0.374  0.376  0.347  0.338  0.333  0.000  0.000
 2001 036   170    80      1    186    773     0     0   125  0.324  0.411  0.415  0.372  0.375  0.347  0.338  0.333  0.000  0.000
 2001 037   171    79      1    186    773     0     0   125  0.316  0.407  0.413  0.371  0.374  0.347  0.338  0.333  0.000  0.000
 2001 038   172    77      1    186    773     0     0   125  0.308  0.403  0.412  0.369  0.373  0.347  0.338  0.333  0.000  0.000
 2001 039   173   113      1    186    812     0     0   125  0.508  0.566  0.478  0.369  0.372  0.347  0.338  0.333  0.000  0.000

*DSSAT Cropping System Model Ver. 4.0.2.000               Aug 23, 2016; 20:22:27

*RUN   3        : UYSB                    
 MODEL          : CRGRO040 - Soybean         
 EXPERIMENT     : UYSB0397 SB    late to create DSS                             
 TREATMENT  1   : UYSB                    

@YEAR DOY   DAS  SWXD   ROFC   DRNC   PREC  IR#C  IRRC  DTWT   SW1D   SW2D   SW3D   SW4D   SW5D   SW6D   SW7D   SW8D   SW9D   SW10
 2001 232     0   115      0      0      0     0     0   125  0.330  0.394  0.394  0.335  0.375  0.419  0.408  0.395  0.000  0.000
 2001 233     1   112      0      0      0     0     0   125  0.282  0.392  0.394  0.335  0.376  0.418  0.408  0.395  0.000  0.000
 2001 234     2   110      0      0      1     0     0   125  0.242  0.391  0.394  0.336  0.376  0.418  0.408  0.395  0.000  0.000
 2001 235     3   109      0      0      1     0     0   125  0.222  0.390  0.394  0.336  0.377  0.417  0.408  0.395  0.000  0.000
 2001 236     4   109      0      0      1     0     0   125  0.222  0.388  0.394  0.337  0.377  0.417  0.408  0.395  0.000  0.000
 2001 237     5   109      0      0      1     0     0   125  0.222  0.387  0.394  0.337  0.378  0.416  0.408  0.395  0.000  0.000
 2001 238     6   124      0      0     17     0     0   125  0.542  0.386  0.394  0.338  0.378  0.416  0.408  0.395  0.000  0.000
 2001 239     7   122      0      0     17     0     0   125  0.462  0.398  0.394  0.338  0.378  0.415  0.408  0.395  0.000  0.000
 2001 240     8   119      0      0     17     0     0   125  0.399  0.402  0.394  0.339  0.378  0.415  0.408  0.395  0.000  0.000
 2001 241     9   116      0      0     17     0     0   125  0.346  0.401  0.394  0.339  0.379  0.415  0.408  0.395  0.000  0.000
 2001 242    10   117      0      0     21     0     0   125  0.368  0.400  0.394  0.340  0.379  0.414  0.408  0.395  0.000  0.000
 2001 243    11   141      0      0     46     0     0   125  0.539  0.545  0.396  0.340  0.379  0.414  0.407  0.395  0.000  0.000
 2001 244    12   211      8      1    126     0     0   125  0.560  0.559  0.574  0.470  0.461  0.436  0.419  0.400  0.000  0.000
 2001 245    13   222      8      5    143     0     0   125  0.544  0.568  0.568  0.470  0.460  0.447  0.439  0.432  0.000  0.000
 2001 246    14   219      8      9    145     0     0   125  0.543  0.562  0.563  0.465  0.460  0.442  0.439  0.432  0.000  0.000
 2001 247    15   205      8     22    145     0     0   125  0.520  0.554  0.555  0.454  0.448  0.433  0.427  0.417  0.000  0.000
 2001 248    16   195      8     30    145     0     0   125  0.501  0.540  0.550  0.448  0.441  0.427  0.419  0.408  0.000  0.000
 2001 249    17   193      8     31    147     0     0   125  0.526  0.530  0.544  0.446  0.440  0.426  0.419  0.408  0.000  0.000
 2001 250    18   222      9     52    198     0     0   125  0.545  0.570  0.565  0.470  0.460  0.447  0.439  0.432  0.000  0.000
 2001 251    19   204      9     66    198     0     0   125  0.457  0.559  0.556  0.457  0.449  0.436  0.427  0.417  0.000  0.000
 2001 252    20   194      9     74    198     0     0   125  0.481  0.529  0.549  0.449  0.442  0.429  0.419  0.408  0.000  0.000
 2001 253    21   186      9     79    198     0     0   125  0.457  0.521  0.542  0.445  0.437  0.425  0.415  0.403  0.000  0.000
 2001 254    22   182      9     82    198     0     0   125  0.458  0.514  0.537  0.442  0.435  0.423  0.412  0.400  0.000  0.000
 2001 255    23   182      9     82    201     0     0   125  0.495  0.509  0.532  0.439  0.434  0.422  0.412  0.400  0.000  0.000
 2001 256    24   180      9     83    201     0     0   125  0.478  0.511  0.530  0.439  0.433  0.422  0.411  0.398  0.000  0.000
 2001 257    25   179      9     83    201     0     0   125  0.473  0.508  0.527  0.437  0.433  0.422  0.411  0.398  0.000  0.000
 2001 258    26   180      9     83    202     0     0   125  0.495  0.506  0.525  0.436  0.433  0.422  0.411  0.398  0.000  0.000
 2001 259    27   179      9     83    202     0     0   125  0.482  0.507  0.523  0.435  0.433  0.422  0.411  0.398  0.000  0.000
 2001 260    28   178      9     83    202     0     0   125  0.477  0.505  0.522  0.434  0.432  0.422  0.411  0.398  0.000  0.000
 2001 261    29   177      9     83    202     0     0   125  0.475  0.503  0.520  0.433  0.432  0.422  0.411  0.398  0.000  0.000
 2001 262    30   176      9     83    202     0     0   125  0.473  0.501  0.519  0.433  0.432  0.422  0.411  0.398  0.000  0.000
 2001 263    31   176      9     83    202     0     0   125  0.472  0.499  0.517  0.432  0.432  0.422  0.411  0.398  0.000  0.000
 2001 264    32   175      9     83    202     0     0   125  0.471  0.497  0.516  0.431  0.431  0.422  0.411  0.398  0.000  0.000
 2001 265    33   175      9     83    202     0     0   125  0.470  0.496  0.514  0.430  0.431  0.422  0.411  0.398  0.000  0.000
 2001 266    34   174      9     83    202     0     0   125  0.469  0.494  0.513  0.429  0.430  0.422  0.411  0.398  0.000  0.000
 2001 267    35   175      9     83    206     0     0   125  0.495  0.494  0.512  0.429  0.430  0.422  0.411  0.398  0.000  0.000
 2001 268    36   182      9     83    215     0     0   125  0.538  0.548  0.513  0.428  0.430  0.422  0.411  0.398  0.000  0.000
 2001 269    37   181      9     83    215     0     0   125  0.511  0.538  0.519  0.428  0.429  0.422  0.411  0.398  0.000  0.000
 2001 270    38   191      9     83    226     0     0   125  0.557  0.557  0.551  0.432  0.429  0.422  0.411  0.398  0.000  0.000
 2001 271    39   189      9     83    226     0     0   125  0.520  0.551  0.547  0.439  0.431  0.422  0.411  0.398  0.000  0.000
 2001 272    40   221     10    107    286     0     0   125  0.529  0.559  0.568  0.470  0.460  0.447  0.439  0.432  0.000  0.000
 2001 273    41   222     10    125    307     0     0   125  0.548  0.562  0.568  0.470  0.460  0.447  0.439  0.432  0.000  0.000
 2001 274    42   229     19    188    387     0     0   125  0.554  0.576  0.585  0.491  0.460  0.447  0.439  0.432  0.000  0.000
 2001 275    43   222     19    196    390     0     0   125  0.532  0.568  0.568  0.470  0.460  0.447  0.439  0.432  0.000  0.000
 2001 276    44   218     19    201    393     0     0   125  0.540  0.558  0.563  0.465  0.460  0.442  0.439  0.432  0.000  0.000
 2001 277    45   213     19    205    395     0     0   125  0.506  0.555  0.558  0.461  0.457  0.438  0.439  0.430  0.000  0.000
 2001 278    46   198     19    216    395     0     0   125  0.459  0.536  0.551  0.452  0.447  0.430  0.427  0.416  0.000  0.000
 2001 279    47   188     19    223    395     0     0   125  0.445  0.521  0.543  0.446  0.440  0.426  0.419  0.408  0.000  0.000
 2001 280    48   215     19    225    425     0     0   125  0.553  0.566  0.563  0.469  0.460  0.441  0.429  0.412  0.000  0.000
 2001 281    49   201     19    236    425     0     0   125  0.496  0.556  0.555  0.457  0.449  0.432  0.421  0.405  0.000  0.000
 2001 282    50   198     19    237    426     0     0   125  0.498  0.534  0.551  0.453  0.448  0.430  0.423  0.407  0.000  0.000
 2001 283    51   188     19    243    426     0     0   125  0.458  0.526  0.544  0.447  0.441  0.426  0.417  0.402  0.000  0.000
 2001 284    52   183     19    246    426     0     0   125  0.459  0.516  0.538  0.443  0.437  0.423  0.413  0.399  0.000  0.000
 2001 285    53   180     19    248    426     0     0   125  0.461  0.511  0.534  0.440  0.434  0.421  0.411  0.398  0.000  0.000
 2001 286    54   179     19    248    426     0     0   125  0.462  0.506  0.529  0.439  0.433  0.421  0.410  0.398  0.000  0.000
 2001 287    55   177     19    248    426     0     0   125  0.462  0.503  0.526  0.438  0.433  0.421  0.410  0.397  0.000  0.000
 2001 288    56   197     19    248    447     0     0   125  0.550  0.565  0.565  0.451  0.437  0.421  0.411  0.398  0.000  0.000
 2001 289    57   198     19    249    451     0     0   125  0.521  0.568  0.565  0.455  0.442  0.423  0.412  0.398  0.000  0.000
 2001 290    58   210     19    250    468     0     0   125  0.511  0.559  0.567  0.470  0.460  0.439  0.424  0.404  0.000  0.000
 2001 291    59   196     19    260    468     0     0   125  0.473  0.539  0.557  0.457  0.448  0.431  0.417  0.400  0.000  0.000
 2001 292    60   187     19    265    468     0     0   125  0.458  0.523  0.546  0.449  0.441  0.426  0.413  0.398  0.000  0.000
 2001 293    61   189     19    266    475     0     0   125  0.500  0.537  0.539  0.445  0.440  0.425  0.415  0.400  0.000  0.000
 2001 294    62   183     19    268    475     0     0   125  0.466  0.526  0.535  0.441  0.436  0.422  0.412  0.398  0.000  0.000
 2001 295    63   180     19    270    475     0     0   125  0.467  0.514  0.531  0.439  0.433  0.420  0.410  0.398  0.000  0.000
 2001 296    64   178     19    270    475     0     0   125  0.464  0.507  0.527  0.437  0.433  0.420  0.410  0.397  0.000  0.000
 2001 297    65   176     19    270    475     0     0   125  0.462  0.502  0.522  0.435  0.432  0.419  0.409  0.397  0.000  0.000
 2001 298    66   174     19    270    475     0     0   125  0.458  0.497  0.518  0.433  0.431  0.419  0.409  0.397  0.000  0.000
 2001 299    67   215     19    271    520     0     0   125  0.545  0.565  0.565  0.469  0.460  0.447  0.430  0.405  0.000  0.000
 2001 300    68   222     20    308    567     0     0   125  0.537  0.567  0.567  0.470  0.460  0.447  0.439  0.432  0.000  0.000
 2001 301    69   222     20    319    580     0     0   125  0.541  0.565  0.567  0.470  0.460  0.447  0.439  0.432  0.000  0.000
 2001 302    70   222     20    325    588     0     0   125  0.537  0.567  0.567  0.469  0.460  0.447  0.439  0.432  0.000  0.000
 2001 303    71   201     20    340    588     0     0   125  0.449  0.552  0.555  0.456  0.447  0.435  0.426  0.417  0.000  0.000
 2001 304    72   188     20    348    588     0     0   125  0.429  0.522  0.543  0.447  0.439  0.427  0.418  0.408  0.000  0.000
 2001 305    73   180     20    351    588     0     0   125  0.435  0.508  0.533  0.441  0.434  0.423  0.413  0.402  0.000  0.000
 2001 306    74   176     20    353    588     0     0   125  0.436  0.499  0.526  0.437  0.432  0.420  0.410  0.399  0.000  0.000
 2001 307    75   172     20    353    588     0     0   125  0.435  0.491  0.518  0.434  0.430  0.419  0.409  0.397  0.000  0.000
 2001 308    76   168     20    353    588     0     0   125  0.432  0.483  0.511  0.431  0.428  0.417  0.408  0.396  0.000  0.000
 2001 309    77   165     20    353    588     0     0   125  0.428  0.476  0.505  0.428  0.426  0.416  0.407  0.396  0.000  0.000
 2001 310    78   201     20    353    627     0     0   125  0.544  0.564  0.564  0.468  0.455  0.421  0.410  0.395  0.000  0.000
 2001 311    79   204     20    353    632     0     0   125  0.546  0.567  0.567  0.467  0.457  0.425  0.413  0.397  0.000  0.000
 2001 312    80   193     20    360    632     0     0   125  0.492  0.554  0.554  0.454  0.445  0.422  0.410  0.397  0.000  0.000
 2001 313    81   213     20    361    657     0     0   125  0.529  0.556  0.565  0.468  0.459  0.446  0.427  0.404  0.000  0.000
 2001 314    82   219     20    364    668     0     0   125  0.549  0.560  0.566  0.469  0.460  0.447  0.439  0.417  0.000  0.000
 2001 315    83   199     20    377    668     0     0   125  0.465  0.548  0.551  0.454  0.446  0.434  0.425  0.407  0.000  0.000
 2001 316    84   186     20    383    668     0     0   125  0.457  0.520  0.538  0.445  0.438  0.426  0.417  0.402  0.000  0.000
 2001 317    85   181     20    386    668     0     0   125  0.459  0.511  0.532  0.441  0.434  0.423  0.413  0.399  0.000  0.000
 2001 318    86   175     20    387    668     0     0   125  0.443  0.501  0.524  0.438  0.431  0.420  0.410  0.397  0.000  0.000
 2001 319    87   170     20    387    668     0     0   125  0.433  0.490  0.515  0.433  0.428  0.417  0.408  0.396  0.000  0.000
 2001 320    88   166     20    387    668     0     0   125  0.426  0.480  0.507  0.429  0.426  0.415  0.407  0.395  0.000  0.000
 2001 321    89   161     20    387    668     0     0   125  0.419  0.470  0.498  0.425  0.423  0.413  0.405  0.394  0.000  0.000
 2001 322    90   155     20    387    668     0     0   125  0.412  0.460  0.489  0.420  0.419  0.410  0.403  0.393  0.000  0.000
 2001 323    91   151     20    387    668     0     0   125  0.405  0.452  0.481  0.416  0.416  0.408  0.402  0.392  0.000  0.000
 2001 324    92   146     20    387    668     0     0   125  0.397  0.442  0.472  0.411  0.413  0.405  0.399  0.391  0.000  0.000
 2001 325    93   143     20    387    668     0     0   125  0.390  0.438  0.467  0.409  0.411  0.404  0.398  0.390  0.000  0.000
 2001 326    94   138     20    387    668     0     0   125  0.384  0.432  0.459  0.404  0.407  0.402  0.397  0.389  0.000  0.000
 2001 327    95   133     20    387    668     0     0   125  0.377  0.425  0.448  0.399  0.403  0.399  0.394  0.388  0.000  0.000
 2001 328    96   182     20    387    719     0     0   125  0.556  0.566  0.566  0.450  0.411  0.399  0.394  0.388  0.000  0.000
 2001 329    97   179     20    387    719     0     0   125  0.520  0.553  0.553  0.443  0.431  0.400  0.393  0.387  0.000  0.000
 2001 330    98   222     21    394    771     0     0   125  0.566  0.557  0.566  0.469  0.459  0.447  0.439  0.431  0.000  0.000
 2001 331    99   201     21    408    771     0     0   125  0.492  0.545  0.550  0.454  0.446  0.434  0.425  0.416  0.000  0.000
 2001 332   100   188     21    415    771     0     0   125  0.469  0.524  0.538  0.445  0.437  0.426  0.417  0.407  0.000  0.000
 2001 333   101   194     21    416    784     0     0   125  0.531  0.559  0.546  0.444  0.436  0.423  0.416  0.405  0.000  0.000
 2001 334   102   192     21    417    785     0     0   125  0.540  0.546  0.546  0.443  0.436  0.422  0.414  0.404  0.000  0.000
 2001 335   103   184     21    419    785     0     0   125  0.479  0.538  0.538  0.438  0.431  0.420  0.410  0.400  0.000  0.000
 2001 336   104   177     21    419    785     0     0   125  0.469  0.516  0.528  0.435  0.429  0.418  0.409  0.397  0.000  0.000
 2001 337   105   175     21    419    785     0     0   125  0.470  0.508  0.524  0.433  0.428  0.417  0.408  0.397  0.000  0.000
 2001 338   106   174     21    419    786     0     0   125  0.484  0.502  0.520  0.431  0.427  0.416  0.408  0.396  0.000  0.000
 2001 339   107   171     21    419    786     0     0   125  0.459  0.499  0.515  0.429  0.425  0.415  0.407  0.396  0.000  0.000
 2001 340   108   166     21    419    786     0     0   125  0.439  0.489  0.508  0.426  0.423  0.413  0.406  0.395  0.000  0.000
 2001 341   109   160     21    419    786     0     0   125  0.425  0.478  0.499  0.422  0.420  0.411  0.404  0.394  0.000  0.000
 2001 342   110   155     21    419    786     0     0   125  0.416  0.468  0.491  0.418  0.417  0.409  0.402  0.393  0.000  0.000
 2001 343   111   150     21    419    786     0     0   125  0.407  0.458  0.482  0.414  0.414  0.406  0.400  0.392  0.000  0.000
 2001 344   112   145     21    419    786     0     0   125  0.399  0.448  0.474  0.409  0.410  0.404  0.399  0.391  0.000  0.000
 2001 345   113   141     21    419    786     0     0   125  0.391  0.440  0.466  0.406  0.408  0.402  0.397  0.390  0.000  0.000
 2001 346   114   137     21    419    786     0     0   125  0.384  0.433  0.460  0.402  0.405  0.400  0.396  0.389  0.000  0.000
 2001 347   115   133     21    419    786     0     0   125  0.377  0.428  0.453  0.399  0.402  0.399  0.394  0.388  0.000  0.000
 2001 348   116   129     21    419    786     0     0   125  0.370  0.423  0.444  0.395  0.399  0.397  0.392  0.387  0.000  0.000
 2001 349   117   124     21    419    786     0     0   125  0.363  0.418  0.434  0.390  0.395  0.395  0.390  0.386  0.000  0.000
 2001 350   118   120     21    419    786     0     0   125  0.357  0.412  0.427  0.387  0.392  0.392  0.388  0.384  0.000  0.000
 2001 351   119   115     21    419    786     0     0   125  0.351  0.407  0.419  0.382  0.388  0.389  0.385  0.382  0.000  0.000
 2001 352   120   109     21    419    786     0     0   125  0.345  0.401  0.412  0.377  0.383  0.386  0.382  0.379  0.000  0.000
 2001 353   121   106     21    419    786     0     0   125  0.338  0.397  0.408  0.374  0.381  0.384  0.380  0.377  0.000  0.000
 2001 354   122   102     21    419    786     0     0   125  0.333  0.393  0.405  0.371  0.378  0.381  0.378  0.375  0.000  0.000
 2001 355   123   134     21    419    820     0     0   125  0.553  0.566  0.436  0.370  0.377  0.381  0.378  0.374  0.000  0.000
 2001 356   124   128     21    419    820     0     0   125  0.480  0.536  0.444  0.369  0.376  0.380  0.377  0.373  0.000  0.000
 2001 357   125   121     21    419    820     0     0   125  0.450  0.501  0.438  0.368  0.375  0.379  0.376  0.372  0.000  0.000
 2001 358   126   115     21    419    820     0     0   125  0.400  0.477  0.432  0.367  0.374  0.378  0.375  0.371  0.000  0.000
 2001 359   127   108     21    419    820     0     0   125  0.384  0.449  0.423  0.366  0.372  0.376  0.373  0.370  0.000  0.000
 2001 360   128   102     21    419    820     0     0   125  0.369  0.422  0.416  0.364  0.370  0.374  0.372  0.369  0.000  0.000
 2001 361   129    96     21    419    820     0     0   125  0.354  0.407  0.407  0.361  0.367  0.372  0.370  0.366  0.000  0.000
 2001 362   130    91     21    419    820     0     0   125  0.341  0.398  0.399  0.358  0.364  0.369  0.367  0.364  0.000  0.000
 2001 363   131    86     21    419    820     0     0   125  0.329  0.390  0.393  0.355  0.361  0.366  0.364  0.362  0.000  0.000
 2001 364   132    96     21    419    836     0     0   125  0.508  0.428  0.389  0.352  0.359  0.364  0.362  0.360  0.000  0.000
 2001 365   133    91     21    419    836     0     0   125  0.430  0.427  0.389  0.352  0.358  0.363  0.361  0.359  0.000  0.000
 2002 001   134    84     21    419    836     0     0   125  0.366  0.408  0.386  0.350  0.356  0.362  0.360  0.357  0.000  0.000
 2002 002   135    78     21    419    836     0     0   125  0.326  0.394  0.382  0.347  0.354  0.359  0.357  0.355  0.000  0.000
 2002 003   136    72     21    419    836     0     0   125  0.303  0.383  0.377  0.344  0.350  0.356  0.354  0.352  0.000  0.000
 2002 004   137    67     21    419    836     0     0   125  0.284  0.376  0.373  0.341  0.347  0.353  0.351  0.350  0.000  0.000
 2002 005   138    81     21    419    852     0     0   125  0.549  0.392  0.372  0.340  0.347  0.352  0.351  0.349  0.000  0.000
 2002 006   139    87     21    419    862     0     0   125  0.479  0.492  0.372  0.339  0.346  0.352  0.350  0.348  0.000  0.000
 2002 007   140    80     21    419    862     0     0   125  0.403  0.467  0.374  0.339  0.346  0.351  0.350  0.348  0.000  0.000
 2002 008   141    73     21    419    862     0     0   125  0.362  0.425  0.375  0.338  0.345  0.350  0.349  0.347  0.000  0.000
 2002 009   142    67     21    419    862     0     0   125  0.325  0.398  0.373  0.337  0.343  0.349  0.348  0.346  0.000  0.000
 2002 010   143    62     21    419    862     0     0   125  0.302  0.383  0.369  0.334  0.341  0.347  0.345  0.344  0.000  0.000
 2002 011   144    57     21    419    862     0     0   125  0.283  0.373  0.365  0.332  0.338  0.344  0.343  0.342  0.000  0.000
 2002 012   145    52     21    419    862     0     0   125  0.267  0.366  0.361  0.329  0.336  0.341  0.340  0.339  0.000  0.000
 2002 013   146    60     21    419    875     0     0   125  0.481  0.361  0.358  0.327  0.333  0.339  0.338  0.337  0.000  0.000
 2002 014   147    60     21    419    878     0     0   125  0.482  0.365  0.358  0.326  0.333  0.339  0.338  0.337  0.000  0.000
 2002 015   148    54     21    419    878     0     0   125  0.365  0.369  0.357  0.326  0.332  0.338  0.337  0.336  0.000  0.000
 2002 016   149    49     21    419    878     0     0   125  0.314  0.364  0.355  0.324  0.330  0.336  0.335  0.334  0.000  0.000
 2002 017   150    44     21    419    878     0     0   125  0.269  0.359  0.353  0.322  0.328  0.334  0.333  0.333  0.000  0.000
 2002 018   151    40     21    419    878     0     0   125  0.242  0.356  0.351  0.320  0.327  0.333  0.332  0.331  0.000  0.000
 2002 019   152    37     21    419    878     0     0   125  0.221  0.353  0.349  0.319  0.325  0.331  0.330  0.330  0.000  0.000
 2002 020   153    39     21    419    881     0     0   125  0.280  0.350  0.347  0.318  0.324  0.330  0.329  0.329  0.000  0.000
 2002 021   154    35     21    419    881     0     0   125  0.250  0.348  0.346  0.316  0.323  0.329  0.328  0.328  0.000  0.000
 2002 022   155    33     21    419    881     0     0   125  0.228  0.346  0.345  0.315  0.321  0.327  0.327  0.326  0.000  0.000
 2002 023   156    31     21    419    881     0     0   125  0.220  0.345  0.343  0.314  0.320  0.326  0.326  0.325  0.000  0.000
 2002 024   157    73     21    419    924     0     0   125  0.568  0.566  0.364  0.313  0.319  0.325  0.325  0.325  0.000  0.000
 2002 025   158    66     21    419    924     0     0   125  0.444  0.539  0.379  0.313  0.319  0.325  0.325  0.324  0.000  0.000
 2002 026   159    64     21    419    924     0     0   125  0.455  0.503  0.383  0.313  0.319  0.325  0.325  0.324  0.000  0.000
 2002 027   160    63     21    419    928     0     0   125  0.481  0.484  0.385  0.313  0.319  0.325  0.325  0.324  0.000  0.000
 2002 028   161    59     21    419    928     0     0   125  0.417  0.472  0.387  0.314  0.319  0.325  0.325  0.324  0.000  0.000
 2002 029   162    57     21    419    928     0     0   125  0.399  0.456  0.388  0.314  0.319  0.325  0.325  0.324  0.000  0.000
 2002 030   163   128     69    419   1055     0     0   125  0.454  0.560  0.569  0.470  0.372  0.325  0.325  0.324  0.000  0.000
 2002 031   164   125     69    419   1055     0     0   125  0.444  0.528  0.555  0.455  0.402  0.325  0.325  0.324  0.000  0.000
 2002 032   165   123     69    419   1055     0     0   125  0.454  0.515  0.544  0.446  0.414  0.326  0.325  0.324  0.000  0.000

*DSSAT Cropping System Model Ver. 4.0.2.000               Aug 23, 2016; 20:22:27

*RUN   4        : UYSB                    
 MODEL          : CRGRO040 - Soybean         
 EXPERIMENT     : UYSB0397 SB    late to create DSS                             
 TREATMENT  1   : UYSB                    

@YEAR DOY   DAS  SWXD   ROFC   DRNC   PREC  IR#C  IRRC  DTWT   SW1D   SW2D   SW3D   SW4D   SW5D   SW6D   SW7D   SW8D   SW9D   SW10
 2002 232     0   117      0      0      0     0     0   125  0.374  0.394  0.394  0.335  0.375  0.419  0.408  0.395  0.000  0.000
 2002 233     1   115      0      0      0     0     0   125  0.329  0.393  0.394  0.335  0.376  0.418  0.408  0.395  0.000  0.000
 2002 234     2   112      0      0      0     0     0   125  0.288  0.392  0.394  0.336  0.376  0.418  0.408  0.395  0.000  0.000
 2002 235     3   111      0      0      0     0     0   125  0.265  0.391  0.394  0.336  0.377  0.417  0.408  0.395  0.000  0.000
 2002 236     4   110      0      0      0     0     0   125  0.246  0.389  0.394  0.337  0.377  0.417  0.408  0.395  0.000  0.000
 2002 237     5   109      0      0      0     0     0   125  0.231  0.388  0.394  0.337  0.378  0.416  0.408  0.395  0.000  0.000
 2002 238     6   109      0      0      0     0     0   125  0.222  0.387  0.394  0.338  0.378  0.416  0.408  0.395  0.000  0.000
 2002 239     7   108      0      0      0     0     0   125  0.222  0.386  0.394  0.338  0.378  0.415  0.408  0.395  0.000  0.000
 2002 240     8   139      0      0     31     0     0   125  0.568  0.522  0.394  0.339  0.378  0.415  0.408  0.395  0.000  0.000
 2002 241     9   139      0      0     33     0     0   125  0.513  0.542  0.399  0.339  0.379  0.415  0.408  0.395  0.000  0.000
 2002 242    10   136      0      0     33     0     0   125  0.464  0.522  0.404  0.340  0.379  0.414  0.408  0.395  0.000  0.000
 2002 243    11   134      0      0     33     0     0   125  0.454  0.502  0.408  0.340  0.379  0.414  0.407  0.395  0.000  0.000
 2002 244    12   132      0      0     33     0     0   125  0.426  0.489  0.410  0.341  0.380  0.414  0.407  0.395  0.000  0.000
 2002 245    13   130      0      0     33     0     0   125  0.416  0.477  0.412  0.342  0.380  0.413  0.407  0.395  0.000  0.000
 2002 246    14   129      0      0     33     0     0   125  0.408  0.468  0.414  0.342  0.380  0.413  0.407  0.395  0.000  0.000
 2002 247    15   128      0      0     33     0     0   125  0.400  0.460  0.415  0.343  0.380  0.413  0.407  0.395  0.000  0.000
 2002 248    16   128      0      0     35     0     0   125  0.418  0.453  0.416  0.344  0.380  0.412  0.407  0.395  0.000  0.000
 2002 249    17   135      0      0     42     0     0   125  0.541  0.452  0.417  0.344  0.381  0.412  0.407  0.395  0.000  0.000
 2002 250    18   132      0      0     42     0     0   125  0.451  0.465  0.418  0.345  0.381  0.412  0.407  0.395  0.000  0.000
 2002 251    19   130      0      0     42     0     0   125  0.426  0.461  0.420  0.345  0.381  0.411  0.407  0.395  0.000  0.000
 2002 252    20   129      0      0     42     0     0   125  0.410  0.456  0.421  0.346  0.381  0.411  0.407  0.395  0.000  0.000
 2002 253    21   148      0      0     62     0     0   125  0.550  0.558  0.431  0.347  0.381  0.411  0.407  0.395  0.000  0.000
 2002 254    22   217      7      1    140     0     0   125  0.558  0.558  0.574  0.471  0.461  0.447  0.430  0.404  0.000  0.000
 2002 255    23   201      7     13    140     0     0   125  0.472  0.551  0.561  0.458  0.449  0.436  0.421  0.400  0.000  0.000
 2002 256    24   191      7     20    140     0     0   125  0.460  0.528  0.551  0.450  0.442  0.429  0.416  0.398  0.000  0.000
 2002 257    25   185      7     24    140     0     0   125  0.456  0.518  0.542  0.445  0.437  0.425  0.413  0.397  0.000  0.000
 2002 258    26   182      7     26    140     0     0   125  0.458  0.513  0.537  0.442  0.435  0.423  0.411  0.397  0.000  0.000
 2002 259    27   182      7     26    142     0     0   125  0.489  0.509  0.533  0.440  0.434  0.422  0.412  0.398  0.000  0.000
 2002 260    28   180      7     27    142     0     0   125  0.477  0.510  0.530  0.439  0.433  0.422  0.410  0.398  0.000  0.000
 2002 261    29   199      7     27    163     0     0   125  0.552  0.566  0.565  0.457  0.440  0.423  0.412  0.398  0.000  0.000
 2002 262    30   200      7     28    166     0     0   125  0.530  0.568  0.564  0.458  0.445  0.424  0.413  0.399  0.000  0.000
 2002 263    31   190      7     33    166     0     0   125  0.459  0.552  0.555  0.450  0.439  0.422  0.411  0.398  0.000  0.000
 2002 264    32   185      7     36    166     0     0   125  0.457  0.527  0.547  0.445  0.436  0.422  0.410  0.398  0.000  0.000
 2002 265    33   182      7     37    166     0     0   125  0.456  0.517  0.540  0.442  0.434  0.422  0.410  0.398  0.000  0.000
 2002 266    34   180      7     37    166     0     0   125  0.458  0.511  0.535  0.440  0.434  0.422  0.410  0.398  0.000  0.000
 2002 267    35   179      7     37    166     0     0   125  0.460  0.507  0.531  0.439  0.434  0.422  0.410  0.398  0.000  0.000
 2002 268    36   178      7     37    166     0     0   125  0.462  0.504  0.528  0.438  0.434  0.422  0.410  0.398  0.000  0.000
 2002 269    37   178      7     37    166     0     0   125  0.462  0.501  0.525  0.437  0.434  0.422  0.410  0.398  0.000  0.000
 2002 270    38   177      7     37    166     0     0   125  0.463  0.499  0.522  0.436  0.434  0.422  0.410  0.398  0.000  0.000
 2002 271    39   176      7     37    166     0     0   125  0.463  0.497  0.520  0.435  0.433  0.422  0.410  0.397  0.000  0.000
 2002 272    40   216      7     38    209     0     0   125  0.550  0.566  0.566  0.469  0.460  0.447  0.431  0.406  0.000  0.000
 2002 273    41   201      7     50    209     0     0   125  0.477  0.556  0.556  0.456  0.448  0.436  0.422  0.402  0.000  0.000
 2002 274    42   191      7     58    209     0     0   125  0.464  0.531  0.549  0.449  0.441  0.429  0.416  0.399  0.000  0.000
 2002 275    43   211      7     59    234     0     0   125  0.513  0.564  0.564  0.470  0.460  0.439  0.426  0.405  0.000  0.000
 2002 276    44   196      7     69    234     0     0   125  0.452  0.543  0.555  0.457  0.449  0.431  0.419  0.401  0.000  0.000
 2002 277    45   188      7     75    234     0     0   125  0.461  0.523  0.546  0.449  0.441  0.426  0.415  0.399  0.000  0.000
 2002 278    46   184      7     78    234     0     0   125  0.465  0.516  0.539  0.445  0.437  0.423  0.412  0.397  0.000  0.000
 2002 279    47   221    105    113    408     0     0   125  0.513  0.573  0.565  0.469  0.460  0.447  0.439  0.432  0.000  0.000
 2002 280    48   222    105    119    417     0     0   125  0.550  0.559  0.568  0.470  0.460  0.447  0.439  0.432  0.000  0.000
 2002 281    49   222    105    126    426     0     0   125  0.535  0.568  0.568  0.470  0.460  0.447  0.439  0.432  0.000  0.000
 2002 282    50   222    105    145    446     0     0   125  0.541  0.564  0.568  0.470  0.460  0.447  0.439  0.432  0.000  0.000
 2002 283    51   220    105    149    451     0     0   125  0.535  0.567  0.568  0.470  0.460  0.442  0.439  0.432  0.000  0.000
 2002 284    52   204    105    163    451     0     0   125  0.498  0.554  0.557  0.457  0.449  0.433  0.427  0.417  0.000  0.000
 2002 285    53   192    105    171    451     0     0   125  0.450  0.533  0.550  0.449  0.441  0.427  0.419  0.408  0.000  0.000
 2002 286    54   185    105    176    451     0     0   125  0.450  0.518  0.541  0.444  0.437  0.424  0.414  0.403  0.000  0.000
 2002 287    55   181    105    178    451     0     0   125  0.452  0.511  0.535  0.441  0.434  0.422  0.412  0.400  0.000  0.000
 2002 288    56   203    105    178    476     0     0   125  0.541  0.566  0.564  0.469  0.451  0.424  0.414  0.400  0.000  0.000
 2002 289    57   194    105    185    476     0     0   125  0.498  0.556  0.555  0.456  0.443  0.422  0.411  0.398  0.000  0.000
 2002 290    58   186    105    189    476     0     0   125  0.453  0.533  0.548  0.449  0.438  0.421  0.410  0.397  0.000  0.000
 2002 291    59   182    105    190    476     0     0   125  0.455  0.518  0.540  0.444  0.435  0.420  0.410  0.397  0.000  0.000
 2002 292    60   222    132    224    579     0     0   125  0.548  0.573  0.564  0.469  0.460  0.447  0.439  0.432  0.000  0.000
 2002 293    61   206    132    238    579     0     0   125  0.509  0.560  0.555  0.457  0.448  0.436  0.427  0.417  0.000  0.000
 2002 294    62   194    132    247    579     0     0   125  0.474  0.538  0.549  0.449  0.441  0.429  0.419  0.408  0.000  0.000
 2002 295    63   186    132    251    579     0     0   125  0.455  0.523  0.541  0.444  0.436  0.424  0.414  0.403  0.000  0.000
 2002 296    64   181    132    253    579     0     0   125  0.457  0.513  0.534  0.440  0.434  0.422  0.411  0.399  0.000  0.000
 2002 297    65   178    132    254    579     0     0   125  0.456  0.506  0.529  0.439  0.433  0.421  0.410  0.397  0.000  0.000
 2002 298    66   177    132    254    579     0     0   125  0.456  0.501  0.525  0.437  0.433  0.421  0.409  0.397  0.000  0.000
 2002 299    67   218    132    277    649     0     0   125  0.483  0.563  0.564  0.468  0.460  0.447  0.439  0.431  0.000  0.000
 2002 300    68   202    132    291    649     0     0   125  0.495  0.533  0.554  0.456  0.448  0.435  0.426  0.417  0.000  0.000
 2002 301    69   219    132    298    678     0     0   125  0.512  0.562  0.563  0.469  0.460  0.447  0.439  0.431  0.000  0.000
 2002 302    70   203    132    312    678     0     0   125  0.494  0.541  0.554  0.456  0.448  0.435  0.426  0.417  0.000  0.000
 2002 303    71   194    132    319    678     0     0   125  0.507  0.527  0.545  0.448  0.441  0.428  0.419  0.408  0.000  0.000
 2002 304    72   185    132    323    678     0     0   125  0.459  0.523  0.538  0.443  0.436  0.424  0.414  0.402  0.000  0.000
 2002 305    73   179    132    325    678     0     0   125  0.457  0.511  0.530  0.439  0.432  0.421  0.411  0.399  0.000  0.000
 2002 306    74   176    132    326    678     0     0   125  0.454  0.502  0.524  0.436  0.431  0.420  0.410  0.397  0.000  0.000
 2002 307    75   222    132    345    746     0     0   125  0.560  0.564  0.565  0.468  0.460  0.447  0.439  0.431  0.000  0.000
 2002 308    76   204    132    360    746     0     0   125  0.508  0.553  0.554  0.455  0.448  0.435  0.426  0.417  0.000  0.000
 2002 309    77   191    132    367    746     0     0   125  0.464  0.532  0.545  0.447  0.439  0.428  0.418  0.408  0.000  0.000
 2002 310    78   182    132    371    746     0     0   125  0.440  0.516  0.536  0.441  0.434  0.423  0.413  0.402  0.000  0.000
 2002 311    79   176    132    373    746     0     0   125  0.438  0.504  0.527  0.437  0.431  0.420  0.410  0.399  0.000  0.000
 2002 312    80   172    132    373    746     0     0   125  0.435  0.494  0.519  0.434  0.429  0.418  0.409  0.397  0.000  0.000
 2002 313    81   185    132    373    761     0     0   125  0.556  0.562  0.526  0.432  0.429  0.418  0.408  0.396  0.000  0.000
 2002 314    82   182    132    373    761     0     0   125  0.503  0.547  0.534  0.431  0.427  0.417  0.408  0.396  0.000  0.000
 2002 315    83   180    132    373    761     0     0   125  0.511  0.529  0.533  0.430  0.427  0.417  0.408  0.396  0.000  0.000
 2002 316    84   173    132    373    761     0     0   125  0.460  0.519  0.526  0.428  0.424  0.415  0.406  0.395  0.000  0.000
 2002 317    85   168    132    373    761     0     0   125  0.436  0.503  0.517  0.425  0.422  0.413  0.405  0.395  0.000  0.000
 2002 318    86   166    132    373    765     0     0   125  0.469  0.491  0.510  0.423  0.420  0.411  0.404  0.394  0.000  0.000
 2002 319    87   162    132    373    765     0     0   125  0.442  0.487  0.505  0.421  0.418  0.410  0.403  0.393  0.000  0.000
 2002 320    88   157    132    373    765     0     0   125  0.426  0.477  0.496  0.417  0.416  0.408  0.401  0.392  0.000  0.000
 2002 321    89   154    132    373    765     0     0   125  0.417  0.471  0.493  0.415  0.414  0.407  0.401  0.392  0.000  0.000
 2002 322    90   149    132    373    765     0     0   125  0.409  0.460  0.484  0.411  0.411  0.405  0.399  0.391  0.000  0.000
 2002 323    91   186    132    373    806     0     0   125  0.529  0.562  0.563  0.459  0.425  0.404  0.398  0.390  0.000  0.000
 2002 324    92   192    132    373    813     0     0   125  0.555  0.560  0.566  0.468  0.439  0.406  0.398  0.390  0.000  0.000
 2002 325    93   187    132    373    813     0     0   125  0.493  0.549  0.552  0.454  0.434  0.418  0.402  0.390  0.000  0.000
 2002 326    94   180    132    373    813     0     0   125  0.464  0.525  0.540  0.445  0.432  0.417  0.407  0.391  0.000  0.000
 2002 327    95   173    132    373    813     0     0   125  0.431  0.509  0.529  0.439  0.429  0.416  0.405  0.391  0.000  0.000
 2002 328    96   220    149    399    907     0     0   125  0.535  0.568  0.562  0.467  0.459  0.446  0.438  0.431  0.000  0.000
 2002 329    97   221    149    406    918     0     0   125  0.550  0.563  0.566  0.469  0.460  0.447  0.439  0.431  0.000  0.000
 2002 330    98   202    149    420    918     0     0   125  0.482  0.550  0.552  0.455  0.446  0.434  0.425  0.416  0.000  0.000
[...]
 2013 241     9   120      0      0     17     0     0   125  0.329  0.433  0.403  0.339  0.379  0.415  0.408  0.395  0.000  0.000
 2013 242    10   119      0      0     17     0     0   125  0.318  0.429  0.404  0.340  0.379  0.414  0.408  0.395  0.000  0.000
 2013 243    11   118      0      0     17     0     0   125  0.309  0.424  0.404  0.341  0.379  0.414  0.407  0.395  0.000  0.000
 2013 244    12   118      0      0     17     0     0   125  0.300  0.421  0.405  0.341  0.380  0.414  0.407  0.395  0.000  0.000
 2013 245    13   117      0      0     17     0     0   125  0.292  0.417  0.405  0.342  0.380  0.413  0.407  0.395  0.000  0.000
 2013 246    14   116      0      0     17     0     0   125  0.285  0.414  0.405  0.342  0.380  0.413  0.407  0.395  0.000  0.000
 2013 247    15   116      0      0     17     0     0   125  0.278  0.411  0.405  0.343  0.380  0.413  0.407  0.395  0.000  0.000
 2013 248    16   115      0      0     17     0     0   125  0.272  0.409  0.405  0.343  0.380  0.412  0.407  0.395  0.000  0.000
 2013 249    17   114      0      0     17     0     0   125  0.266  0.406  0.405  0.344  0.381  0.412  0.407  0.395  0.000  0.000
 2013 250    18   121      0      0     26     0     0   125  0.404  0.404  0.405  0.344  0.381  0.412  0.407  0.395  0.000  0.000
 2013 251    19   120      0      0     26     0     0   125  0.381  0.404  0.405  0.345  0.381  0.411  0.407  0.395  0.000  0.000
 2013 252    20   119      0      0     26     0     0   125  0.364  0.403  0.405  0.345  0.381  0.411  0.407  0.395  0.000  0.000
 2013 253    21   118      0      0     26     0     0   125  0.350  0.402  0.405  0.346  0.381  0.411  0.407  0.395  0.000  0.000
 2013 254    22   117      0      0     26     0     0   125  0.338  0.400  0.405  0.346  0.381  0.411  0.407  0.395  0.000  0.000
 2013 255    23   118      0      0     28     0     0   125  0.349  0.398  0.405  0.347  0.382  0.410  0.406  0.395  0.000  0.000
 2013 256    24   134      0      0     46     0     0   125  0.544  0.468  0.404  0.347  0.382  0.410  0.406  0.395  0.000  0.000
 2013 257    25   205     28      0    146     0     0   125  0.530  0.579  0.570  0.470  0.461  0.423  0.410  0.396  0.000  0.000
 2013 258    26   222     29     18    183     0     0   125  0.552  0.562  0.568  0.470  0.460  0.447  0.439  0.432  0.000  0.000
 2013 259    27   219     29     22    186     0     0   125  0.535  0.565  0.564  0.466  0.460  0.442  0.439  0.432  0.000  0.000
 2013 260    28   204     29     35    186     0     0   125  0.505  0.552  0.555  0.455  0.448  0.433  0.427  0.417  0.000  0.000
 2013 261    29   193     29     43    186     0     0   125  0.475  0.535  0.549  0.448  0.441  0.427  0.419  0.408  0.000  0.000
 2013 262    30   186     29     47    186     0     0   125  0.449  0.523  0.542  0.444  0.437  0.424  0.415  0.403  0.000  0.000
 2013 263    31   182     29     50    186     0     0   125  0.454  0.514  0.537  0.441  0.435  0.422  0.412  0.400  0.000  0.000
 2013 264    32   180     29     51    186     0     0   125  0.457  0.509  0.532  0.439  0.433  0.422  0.410  0.398  0.000  0.000
 2013 265    33   179     29     51    186     0     0   125  0.459  0.505  0.529  0.438  0.433  0.422  0.410  0.398  0.000  0.000
 2013 266    34   178     29     51    186     0     0   125  0.460  0.502  0.526  0.437  0.433  0.422  0.410  0.398  0.000  0.000
 2013 267    35   177     29     51    186     0     0   125  0.461  0.500  0.523  0.436  0.433  0.422  0.410  0.398  0.000  0.000
 2013 268    36   176     29     51    186     0     0   125  0.461  0.498  0.521  0.435  0.433  0.422  0.410  0.398  0.000  0.000
 2013 269    37   176     29     51    186     0     0   125  0.462  0.496  0.519  0.434  0.433  0.422  0.410  0.398  0.000  0.000
 2013 270    38   175     29     51    186     0     0   125  0.462  0.494  0.517  0.433  0.432  0.422  0.410  0.398  0.000  0.000
 2013 271    39   174     29     51    186     0     0   125  0.462  0.493  0.515  0.432  0.432  0.422  0.410  0.398  0.000  0.000
 2013 272    40   174     29     51    186     0     0   125  0.461  0.491  0.513  0.431  0.432  0.422  0.410  0.398  0.000  0.000
 2013 273    41   173     29     51    186     0     0   125  0.461  0.490  0.512  0.430  0.431  0.422  0.410  0.398  0.000  0.000
 2013 274    42   172     29     51    186     0     0   125  0.461  0.489  0.510  0.429  0.431  0.422  0.410  0.398  0.000  0.000
 2013 275    43   172     29     51    186     0     0   125  0.460  0.488  0.509  0.428  0.430  0.422  0.410  0.398  0.000  0.000
 2013 276    44   171     29     51    186     0     0   125  0.459  0.486  0.507  0.427  0.430  0.422  0.410  0.398  0.000  0.000
 2013 277    45   171     29     51    186     0     0   125  0.459  0.485  0.506  0.427  0.429  0.422  0.410  0.398  0.000  0.000
 2013 278    46   170     29     51    186     0     0   125  0.458  0.484  0.505  0.426  0.429  0.421  0.410  0.398  0.000  0.000
 2013 279    47   170     29     51    186     0     0   125  0.457  0.483  0.504  0.425  0.428  0.421  0.410  0.398  0.000  0.000
 2013 280    48   169     29     51    186     0     0   125  0.457  0.482  0.502  0.424  0.428  0.421  0.410  0.398  0.000  0.000
 2013 281    49   169     29     51    186     0     0   125  0.456  0.481  0.501  0.424  0.427  0.421  0.410  0.398  0.000  0.000
 2013 282    50   168     29     51    186     0     0   125  0.455  0.480  0.500  0.423  0.427  0.421  0.410  0.398  0.000  0.000
 2013 283    51   196     29     51    218     0     0   125  0.511  0.567  0.567  0.458  0.436  0.421  0.411  0.398  0.000  0.000
 2013 284    52   190     29     55    218     0     0   125  0.481  0.544  0.557  0.450  0.434  0.421  0.411  0.398  0.000  0.000
 2013 285    53   194     29     55    224     0     0   125  0.552  0.546  0.553  0.450  0.438  0.422  0.411  0.398  0.000  0.000
 2013 286    54   189     29     58    224     0     0   125  0.503  0.544  0.548  0.445  0.435  0.422  0.410  0.397  0.000  0.000
 2013 287    55   183     29     59    224     0     0   125  0.448  0.532  0.543  0.442  0.433  0.421  0.410  0.397  0.000  0.000
 2013 288    56   180     29     59    224     0     0   125  0.450  0.518  0.537  0.440  0.433  0.421  0.410  0.397  0.000  0.000
 2013 289    57   179     29     59    224     0     0   125  0.453  0.510  0.533  0.439  0.433  0.421  0.410  0.397  0.000  0.000
 2013 290    58   178     29     59    224     0     0   125  0.455  0.505  0.529  0.438  0.433  0.421  0.410  0.397  0.000  0.000
 2013 291    59   176     29     59    224     0     0   125  0.455  0.501  0.525  0.436  0.432  0.421  0.409  0.397  0.000  0.000
 2013 292    60   175     29     59    224     0     0   125  0.455  0.497  0.522  0.435  0.432  0.421  0.409  0.396  0.000  0.000
 2013 293    61   196     29     59    249     0     0   125  0.513  0.565  0.565  0.456  0.439  0.421  0.410  0.397  0.000  0.000
 2013 294    62   188     29     63    249     0     0   125  0.456  0.543  0.555  0.449  0.435  0.421  0.410  0.397  0.000  0.000
 2013 295    63   206     29     64    272     0     0   125  0.506  0.561  0.566  0.470  0.460  0.432  0.418  0.400  0.000  0.000
 2013 296    64   218     29     93    319     0     0   125  0.491  0.558  0.567  0.469  0.460  0.447  0.439  0.432  0.000  0.000
 2013 297    65   201     29    106    319     0     0   125  0.463  0.533  0.555  0.456  0.448  0.435  0.426  0.417  0.000  0.000
 2013 298    66   190     29    114    319     0     0   125  0.458  0.519  0.544  0.449  0.441  0.429  0.419  0.408  0.000  0.000
 2013 299    67   220     29    133    371     0     0   125  0.525  0.566  0.562  0.469  0.460  0.447  0.439  0.432  0.000  0.000
 2013 300    68   201     29    147    371     0     0   125  0.453  0.547  0.552  0.456  0.448  0.435  0.426  0.417  0.000  0.000
 2013 301    69   190     29    154    371     0     0   125  0.453  0.522  0.543  0.448  0.440  0.428  0.418  0.408  0.000  0.000
 2013 302    70   183     29    158    371     0     0   125  0.455  0.512  0.535  0.443  0.436  0.424  0.414  0.402  0.000  0.000
 2013 303    71   178     29    160    371     0     0   125  0.454  0.505  0.529  0.439  0.433  0.421  0.411  0.399  0.000  0.000
 2013 304    72   177     29    161    371     0     0   125  0.454  0.500  0.525  0.437  0.432  0.421  0.411  0.397  0.000  0.000
 2013 305    73   175     29    161    371     0     0   125  0.453  0.497  0.521  0.436  0.432  0.420  0.410  0.397  0.000  0.000
 2013 306    74   222     30    188    447     0     0   125  0.555  0.567  0.565  0.468  0.460  0.447  0.439  0.432  0.000  0.000
 2013 307    75   203     30    202    447     0     0   125  0.486  0.555  0.554  0.455  0.448  0.435  0.426  0.417  0.000  0.000
 2013 308    76   190     30    210    447     0     0   125  0.459  0.528  0.544  0.447  0.439  0.427  0.418  0.408  0.000  0.000
 2013 309    77   182     30    213    447     0     0   125  0.445  0.513  0.535  0.441  0.434  0.423  0.413  0.402  0.000  0.000
 2013 310    78   176     30    215    447     0     0   125  0.441  0.502  0.526  0.437  0.431  0.420  0.410  0.399  0.000  0.000
 2013 311    79   172     30    215    447     0     0   125  0.437  0.493  0.519  0.434  0.429  0.418  0.409  0.397  0.000  0.000
 2013 312    80   169     30    215    447     0     0   125  0.434  0.487  0.513  0.431  0.428  0.417  0.408  0.396  0.000  0.000
 2013 313    81   177     30    215    457     0     0   125  0.552  0.516  0.510  0.430  0.427  0.417  0.408  0.396  0.000  0.000
 2013 314    82   222     30    220    509     0     0   125  0.526  0.573  0.569  0.468  0.460  0.447  0.439  0.431  0.000  0.000
 2013 315    83   217     31    262    554     0     0   125  0.504  0.556  0.563  0.468  0.458  0.446  0.438  0.431  0.000  0.000
 2013 316    84   197     31    275    554     0     0   125  0.465  0.530  0.548  0.453  0.445  0.433  0.425  0.416  0.000  0.000
 2013 317    85   185     31    282    554     0     0   125  0.438  0.514  0.535  0.445  0.437  0.426  0.417  0.407  0.000  0.000
 2013 318    86   182     31    283    559     0     0   125  0.507  0.499  0.524  0.438  0.433  0.422  0.415  0.405  0.000  0.000
 2013 319    87   211     31    284    592     0     0   125  0.533  0.571  0.564  0.467  0.459  0.436  0.423  0.407  0.000  0.000
 2013 320    88   195     31    294    592     0     0   125  0.476  0.550  0.550  0.453  0.446  0.427  0.416  0.402  0.000  0.000
 2013 321    89   184     31    299    592     0     0   125  0.464  0.522  0.537  0.444  0.437  0.422  0.411  0.398  0.000  0.000
 2013 322    90   183     31    299    599     0     0   125  0.514  0.527  0.528  0.438  0.434  0.420  0.410  0.398  0.000  0.000
 2013 323    91   192     31    299    610     0     0   125  0.558  0.563  0.549  0.440  0.433  0.420  0.410  0.398  0.000  0.000
 2013 324    92   190     31    299    611     0     0   125  0.539  0.556  0.548  0.441  0.433  0.420  0.409  0.397  0.000  0.000
 2013 325    93   188     31    299    612     0     0   125  0.520  0.548  0.545  0.441  0.433  0.420  0.408  0.397  0.000  0.000
 2013 326    94   181     31    300    612     0     0   125  0.480  0.531  0.538  0.438  0.430  0.418  0.407  0.396  0.000  0.000
 2013 327    95   174     31    300    612     0     0   125  0.457  0.513  0.527  0.434  0.427  0.416  0.405  0.395  0.000  0.000
 2013 328    96   167     31    300    612     0     0   125  0.417  0.499  0.517  0.430  0.424  0.413  0.403  0.394  0.000  0.000
 2013 329    97   162     31    300    612     0     0   125  0.410  0.485  0.508  0.426  0.421  0.411  0.402  0.393  0.000  0.000
 2013 330    98   164     31    300    618     0     0   125  0.518  0.477  0.502  0.423  0.420  0.410  0.401  0.393  0.000  0.000
 2013 331    99   192     31    300    650     0     0   125  0.512  0.574  0.563  0.467  0.437  0.411  0.400  0.392  0.000  0.000
 2013 332   100   185     31    300    650     0     0   125  0.480  0.543  0.548  0.452  0.432  0.417  0.407  0.394  0.000  0.000
 2013 333   101   178     31    300    650     0     0   125  0.468  0.520  0.534  0.443  0.428  0.417  0.406  0.394  0.000  0.000
 2013 334   102   172     31    300    650     0     0   125  0.433  0.506  0.524  0.437  0.428  0.414  0.405  0.393  0.000  0.000
 2013 335   103   169     31    300    651     0     0   125  0.453  0.495  0.517  0.434  0.426  0.413  0.403  0.393  0.000  0.000
 2013 336   104   162     31    300    651     0     0   125  0.427  0.484  0.506  0.428  0.422  0.410  0.401  0.391  0.000  0.000
 2013 337   105   156     31    300    651     0     0   125  0.415  0.473  0.497  0.423  0.419  0.407  0.399  0.390  0.000  0.000
 2013 338   106   151     31    300    651     0     0   125  0.405  0.462  0.487  0.418  0.415  0.404  0.397  0.389  0.000  0.000
 2013 339   107   144     31    300    651     0     0   125  0.396  0.450  0.476  0.413  0.411  0.402  0.395  0.388  0.000  0.000
 2013 340   108   139     31    300    651     0     0   125  0.388  0.440  0.467  0.408  0.408  0.399  0.393  0.387  0.000  0.000
 2013 341   109   133     31    300    651     0     0   125  0.379  0.431  0.455  0.403  0.403  0.397  0.391  0.385  0.000  0.000
 2013 342   110   127     31    300    651     0     0   125  0.371  0.424  0.443  0.396  0.399  0.394  0.389  0.384  0.000  0.000
 2013 343   111   125     31    300    651     0     0   125  0.363  0.420  0.439  0.394  0.397  0.393  0.388  0.383  0.000  0.000
 2013 344   112   120     31    300    651     0     0   125  0.356  0.415  0.429  0.389  0.393  0.391  0.386  0.381  0.000  0.000
 2013 345   113   114     31    300    651     0     0   125  0.349  0.408  0.420  0.384  0.388  0.388  0.384  0.379  0.000  0.000
 2013 346   114   108     31    300    651     0     0   125  0.342  0.402  0.412  0.378  0.384  0.385  0.380  0.376  0.000  0.000
 2013 347   115   102     31    300    651     0     0   125  0.336  0.396  0.405  0.373  0.379  0.381  0.377  0.373  0.000  0.000
 2013 348   116    96     31    300    651     0     0   125  0.329  0.390  0.397  0.367  0.373  0.376  0.373  0.370  0.000  0.000
 2013 349   117    91     31    300    651     0     0   125  0.323  0.385  0.392  0.362  0.369  0.373  0.369  0.367  0.000  0.000
 2013 350   118    85     31    300    651     0     0   125  0.316  0.380  0.387  0.358  0.364  0.369  0.366  0.363  0.000  0.000
 2013 351   119    79     31    300    651     0     0   125  0.310  0.375  0.381  0.353  0.359  0.364  0.361  0.359  0.000  0.000
 2013 352   120    74     31    300    651     0     0   125  0.303  0.371  0.376  0.349  0.355  0.360  0.358  0.356  0.000  0.000
 2013 353   121    69     31    300    651     0     0   125  0.296  0.367  0.372  0.345  0.351  0.356  0.354  0.353  0.000  0.000
 2013 354   122    63     31    300    651     0     0   125  0.290  0.362  0.366  0.340  0.346  0.352  0.350  0.349  0.000  0.000
 2013 355   123    58     31    300    651     0     0   125  0.283  0.358  0.361  0.335  0.342  0.347  0.345  0.345  0.000  0.000
 2013 356   124    53     31    300    651     0     0   125  0.276  0.354  0.358  0.332  0.338  0.344  0.342  0.342  0.000  0.000
 2013 357   125    49     31    300    651     0     0   125  0.270  0.351  0.354  0.329  0.335  0.341  0.339  0.339  0.000  0.000
 2013 358   126    46     31    300    651     0     0   125  0.263  0.349  0.352  0.326  0.332  0.338  0.337  0.337  0.000  0.000
 2013 359   127    43     31    300    651     0     0   125  0.256  0.346  0.349  0.324  0.330  0.336  0.335  0.335  0.000  0.000
 2013 360   128    40     31    300    651     0     0   125  0.250  0.345  0.347  0.322  0.328  0.334  0.333  0.333  0.000  0.000
 2013 361   129    38     31    300    651     0     0   125  0.243  0.343  0.346  0.320  0.326  0.332  0.331  0.331  0.000  0.000
 2013 362   130    36     31    300    651     0     0   125  0.237  0.341  0.344  0.318  0.325  0.330  0.329  0.330  0.000  0.000
 2013 363   131    34     31    300    652     0     0   125  0.241  0.340  0.342  0.317  0.323  0.329  0.328  0.328  0.000  0.000
 2013 364   132    47     31    300    668     0     0   125  0.532  0.342  0.341  0.316  0.322  0.328  0.327  0.327  0.000  0.000
 2013 365   133    45     31    300    668     0     0   125  0.476  0.350  0.341  0.315  0.321  0.327  0.326  0.327  0.000  0.000
 2014 001   134    39     31    300    668     0     0   125  0.370  0.354  0.340  0.314  0.321  0.327  0.326  0.326  0.000  0.000
 2014 002   135    37     31    300    668     0     0   125  0.346  0.352  0.339  0.313  0.319  0.325  0.325  0.325  0.000  0.000
 2014 003   136    34     31    300    668     0     0   125  0.329  0.350  0.338  0.312  0.318  0.324  0.323  0.324  0.000  0.000
 2014 004   137    32     31    300    668     0     0   125  0.314  0.348  0.338  0.311  0.317  0.323  0.322  0.323  0.000  0.000
 2014 005   138    30     31    300    668     0     0   125  0.301  0.346  0.337  0.310  0.316  0.322  0.322  0.322  0.000  0.000
 2014 006   139    29     31    300    668     0     0   125  0.288  0.344  0.336  0.309  0.315  0.321  0.321  0.321  0.000  0.000
 2014 007   140    68     31    300    712     0     0   125  0.499  0.566  0.386  0.308  0.314  0.320  0.320  0.320  0.000  0.000
 2014 008   141    62     31    300    712     0     0   125  0.455  0.513  0.397  0.309  0.314  0.320  0.320  0.320  0.000  0.000
 2014 009   142    56     31    300    713     0     0   125  0.422  0.474  0.397  0.309  0.314  0.320  0.320  0.320  0.000  0.000
 2014 010   143    55     31    300    714     0     0   125  0.416  0.457  0.398  0.309  0.314  0.320  0.320  0.320  0.000  0.000
 2014 011   144    52     31    300    714     0     0   125  0.391  0.443  0.398  0.309  0.314  0.320  0.319  0.319  0.000  0.000
 2014 012   145    49     31    300    714     0     0   125  0.373  0.426  0.397  0.309  0.314  0.320  0.319  0.319  0.000  0.000
 2014 013   146    46     31    300    714     0     0   125  0.358  0.410  0.393  0.310  0.314  0.320  0.319  0.319  0.000  0.000
 2014 014   147    55     31    300    727     0     0   125  0.523  0.425  0.389  0.310  0.313  0.319  0.319  0.319  0.000  0.000
 2014 015   148    47     31    300    727     0     0   125  0.390  0.421  0.387  0.310  0.313  0.319  0.319  0.318  0.000  0.000
 2014 016   149    41     31    300    727     0     0   125  0.331  0.396  0.382  0.309  0.313  0.319  0.318  0.318  0.000  0.000
 2014 017   150    37     31    300    727     0     0   125  0.306  0.383  0.376  0.309  0.312  0.318  0.318  0.317  0.000  0.000
 2014 018   151    34     31    300    727     0     0   125  0.286  0.376  0.371  0.308  0.312  0.317  0.317  0.317  0.000  0.000
 2014 019   152    31     31    300    727     0     0   125  0.269  0.370  0.367  0.308  0.311  0.317  0.316  0.316  0.000  0.000
 2014 020   153    40     31    300    740     0     0   125  0.481  0.366  0.364  0.307  0.310  0.316  0.316  0.315  0.000  0.000
 2014 021   154    55     31    300    762     0     0   125  0.413  0.547  0.363  0.307  0.310  0.316  0.316  0.315  0.000  0.000
 2014 022   155    54     31    300    768     0     0   125  0.472  0.507  0.368  0.307  0.310  0.316  0.316  0.315  0.000  0.000
 2014 023   156    48     31    300    768     0     0   125  0.381  0.488  0.371  0.307  0.310  0.316  0.316  0.315  0.000  0.000
 2014 024   157    61     31    300    784     0     0   125  0.530  0.536  0.376  0.307  0.310  0.316  0.316  0.315  0.000  0.000
 2014 025   158    59     31    300    784     0     0   125  0.495  0.525  0.381  0.308  0.310  0.316  0.316  0.315  0.000  0.000
 2014 026   159    54     31    300    784     0     0   125  0.423  0.507  0.385  0.308  0.310  0.316  0.316  0.315  0.000  0.000
 2014 027   160    61     31    300    793     0     0   125  0.535  0.511  0.388  0.308  0.310  0.316  0.316  0.315  0.000  0.000
