*SOIL N BALANCE - CERES SOIL N&C ROUTINES

*DSSAT Cropping System Model Ver. 4.0.2.000               Aug 23, 2016; 20:22:27

*RUN   1        : UYSB                    
 MODEL          : CRGRO040 - Soybean         
 EXPERIMENT     : UYSB0397 SB    late to create DSS                             
 TREATMENT  1   : UYSB                    



                                         INITIAL Year/Doy      FINAL Year/Doy
                                                 1999/232            2000/024
SOIL N BALANCE                                  -----------kg N/ha-----------

   Soil Humus N                                  16646.04            16571.95
   Soil Litter N                                     0.00               14.68
   N in Surface Residue                              0.00               86.73
   Soil NO3                                         30.27               21.21
   Soil NH4                                         23.95                4.45
   Soil Urea                                         0.00                0.00

   Added to / Removed from Soil:
   N in Harvest Residues from Previous Crop          0.00
   N from Organic Applications                       0.00
   N from senesced plant matter                    103.48
   Fertilizer N                                      1.00
   Leached NO3                                                           0.29
   N Denitrified                                                         0.03
   N Uptake From Soil                                                  104.57
   Ammonia volatilization                                                0.83

   Total N balance                               16804.74            16804.74

================================================================================

*DSSAT Cropping System Model Ver. 4.0.2.000               Aug 23, 2016; 20:22:27

*RUN   2        : UYSB                    
 MODEL          : CRGRO040 - Soybean         
 EXPERIMENT     : UYSB0397 SB    late to create DSS                             
 TREATMENT  1   : UYSB                    



                                         INITIAL Year/Doy      FINAL Year/Doy
                                                 2000/232            2001/039
SOIL N BALANCE                                  -----------kg N/ha-----------

   Soil Humus N                                  16646.04            16543.37
   Soil Litter N                                     0.00                6.94
   N in Surface Residue                              0.00               83.46
   Soil NO3                                         30.27               11.80
   Soil NH4                                         23.95                6.65
   Soil Urea                                         0.00                0.00

   Added to / Removed from Soil:
   N in Harvest Residues from Previous Crop          0.00
   N from Organic Applications                       0.00
   N from senesced plant matter                     93.82
   Fertilizer N                                      1.00
   Leached NO3                                                           9.95
   N Denitrified                                                         2.89
   N Uptake From Soil                                                  129.30
   Ammonia volatilization                                                0.73

   Total N balance                               16795.09            16795.09

================================================================================

*DSSAT Cropping System Model Ver. 4.0.2.000               Aug 23, 2016; 20:22:27

*RUN   3        : UYSB                    
 MODEL          : CRGRO040 - Soybean         
 EXPERIMENT     : UYSB0397 SB    late to create DSS                             
 TREATMENT  1   : UYSB                    



                                         INITIAL Year/Doy      FINAL Year/Doy
                                                 2001/232            2002/032
SOIL N BALANCE                                  -----------kg N/ha-----------

   Soil Humus N                                  16646.04            16552.13
   Soil Litter N                                     0.00                8.02
   N in Surface Residue                              0.00               80.66
   Soil NO3                                         30.27               15.11
   Soil NH4                                         23.95                6.93
   Soil Urea                                         0.00                0.00

   Added to / Removed from Soil:
   N in Harvest Residues from Previous Crop          0.00
   N from Organic Applications                       0.00
   N from senesced plant matter                     91.54
   Fertilizer N                                      1.00
   Leached NO3                                                          25.76
   N Denitrified                                                         2.54
   N Uptake From Soil                                                  100.88
   Ammonia volatilization                                                0.80

   Total N balance                               16792.80            16792.80

================================================================================

*DSSAT Cropping System Model Ver. 4.0.2.000               Aug 23, 2016; 20:22:27

*RUN   4        : UYSB                    
 MODEL          : CRGRO040 - Soybean         
 EXPERIMENT     : UYSB0397 SB    late to create DSS                             
 TREATMENT  1   : UYSB                    



                                         INITIAL Year/Doy      FINAL Year/Doy
                                                 2002/232            2003/029
SOIL N BALANCE                                  -----------kg N/ha-----------

   Soil Humus N                                  16646.04            16541.89
   Soil Litter N                                     0.00                4.19
   N in Surface Residue                              0.00               47.76
   Soil NO3                                         30.27               12.02
   Soil NH4                                         23.95                7.27
   Soil Urea                                         0.00                0.00

   Added to / Removed from Soil:
   N in Harvest Residues from Previous Crop          0.00
   N from Organic Applications                       0.00
   N from senesced plant matter                     54.17
   Fertilizer N                                      1.00
   Leached NO3                                                          31.74
   N Denitrified                                                         3.12
   N Uptake From Soil                                                  106.67
   Ammonia volatilization                                                0.79

   Total N balance                               16755.43            16755.43

================================================================================

*DSSAT Cropping System Model Ver. 4.0.2.000               Aug 23, 2016; 20:22:27

*RUN   5        : UYSB                    
 MODEL          : CRGRO040 - Soybean         
 EXPERIMENT     : UYSB0397 SB    late to create DSS                             
 TREATMENT  1   : UYSB                    



                                         INITIAL Year/Doy      FINAL Year/Doy
                                                 2003/232            2004/040
SOIL N BALANCE                                  -----------kg N/ha-----------

   Soil Humus N                                  16646.04            16540.66
   Soil Litter N                                     0.00                8.81
   N in Surface Residue                              0.00               91.27
   Soil NO3                                         30.27               15.06
   Soil NH4                                         23.95                6.48
   Soil Urea                                         0.00                0.00

   Added to / Removed from Soil:
   N in Harvest Residues from Previous Crop          0.00
   N from Organic Applications                       0.00
   N from senesced plant matter                    103.74
   Fertilizer N                                      1.00
   Leached NO3                                                           4.89
   N Denitrified                                                         0.72
   N Uptake From Soil                                                  135.46
   Ammonia volatilization                                                1.66

   Total N balance                               16805.00            16805.01

================================================================================

*DSSAT Cropping System Model Ver. 4.0.2.000               Aug 23, 2016; 20:22:27

*RUN   6        : UYSB                    
 MODEL          : CRGRO040 - Soybean         
 EXPERIMENT     : UYSB0397 SB    late to create DSS                             
 TREATMENT  1   : UYSB                    



                                         INITIAL Year/Doy      FINAL Year/Doy
                                                 2004/232            2005/036
SOIL N BALANCE                                  -----------kg N/ha-----------

   Soil Humus N                                  16646.04            16561.07
   Soil Litter N                                     0.00               16.34
   N in Surface Residue                              0.00               96.83
   Soil NO3                                         30.27               17.98
   Soil NH4                                         23.95                4.74
   Soil Urea                                         0.00                0.00

   Added to / Removed from Soil:
   N in Harvest Residues from Previous Crop          0.00
   N from Organic Applications                       0.00
   N from senesced plant matter                    116.05
   Fertilizer N                                      1.00
   Leached NO3                                                           3.72
   N Denitrified                                                         1.16
   N Uptake From Soil                                                  114.17
   Ammonia volatilization                                                1.30

   Total N balance                               16817.31            16817.31

================================================================================

*DSSAT Cropping System Model Ver. 4.0.2.000               Aug 23, 2016; 20:22:27

*RUN   7        : UYSB                    
 MODEL          : CRGRO040 - Soybean         
 EXPERIMENT     : UYSB0397 SB    late to create DSS                             
 TREATMENT  1   : UYSB                    



                                         INITIAL Year/Doy      FINAL Year/Doy
                                                 2005/232            2006/039
SOIL N BALANCE                                  -----------kg N/ha-----------

   Soil Humus N                                  16646.04            16560.68
   Soil Litter N                                     0.00               13.96
   N in Surface Residue                              0.00               92.46
   Soil NO3                                         30.27               16.00
   Soil NH4                                         23.95                4.48
   Soil Urea                                         0.00                0.00

   Added to / Removed from Soil:
   N in Harvest Residues from Previous Crop          0.00
   N from Organic Applications                       0.00
   N from senesced plant matter                    110.16
   Fertilizer N                                      1.00
   Leached NO3                                                           9.74
   N Denitrified                                                         1.92
   N Uptake From Soil                                                  111.32
   Ammonia volatilization                                                0.85

   Total N balance                               16811.42            16811.42

================================================================================

*DSSAT Cropping System Model Ver. 4.0.2.000               Aug 23, 2016; 20:22:27

*RUN   8        : UYSB                    
 MODEL          : CRGRO040 - Soybean         
 EXPERIMENT     : UYSB0397 SB    late to create DSS                             
 TREATMENT  1   : UYSB                    



                                         INITIAL Year/Doy      FINAL Year/Doy
                                                 2006/232            2007/033
SOIL N BALANCE                                  -----------kg N/ha-----------

   Soil Humus N                                  16646.04            16551.34
   Soil Litter N                                     0.00                6.89
   N in Surface Residue                              0.00               72.60
   Soil NO3                                         30.27               12.45
   Soil NH4                                         23.95                7.43
   Soil Urea                                         0.00                0.00

   Added to / Removed from Soil:
   N in Harvest Residues from Previous Crop          0.00
   N from Organic Applications                       0.00
   N from senesced plant matter                     84.06
   Fertilizer N                                      1.00
   Leached NO3                                                           0.00
   N Denitrified                                                         0.00
   N Uptake From Soil                                                  134.01
   Ammonia volatilization                                                0.62

   Total N balance                               16785.33            16785.33

================================================================================

*DSSAT Cropping System Model Ver. 4.0.2.000               Aug 23, 2016; 20:22:27

*RUN   9        : UYSB                    
 MODEL          : CRGRO040 - Soybean         
 EXPERIMENT     : UYSB0397 SB    late to create DSS                             
 TREATMENT  1   : UYSB                    



                                         INITIAL Year/Doy      FINAL Year/Doy
                                                 2007/232            2008/020
SOIL N BALANCE                                  -----------kg N/ha-----------

   Soil Humus N                                  16646.04            16572.72
   Soil Litter N                                     0.00               10.70
   N in Surface Residue                              0.00               63.08
   Soil NO3                                         30.27               18.50
   Soil NH4                                         23.95                4.71
   Soil Urea                                         0.00                0.00

   Added to / Removed from Soil:
   N in Harvest Residues from Previous Crop          0.00
   N from Organic Applications                       0.00
   N from senesced plant matter                     75.62
   Fertilizer N                                      1.00
   Leached NO3                                                           9.24
   N Denitrified                                                         1.16
   N Uptake From Soil                                                   96.08
   Ammonia volatilization                                                0.69

   Total N balance                               16776.88            16776.88

================================================================================

*DSSAT Cropping System Model Ver. 4.0.2.000               Aug 23, 2016; 20:22:27

*RUN  10        : UYSB                    
 MODEL          : CRGRO040 - Soybean         
 EXPERIMENT     : UYSB0397 SB    late to create DSS                             
 TREATMENT  1   : UYSB                    



                                         INITIAL Year/Doy      FINAL Year/Doy
                                                 2008/232            2009/024
SOIL N BALANCE                                  -----------kg N/ha-----------

   Soil Humus N                                  16646.04            16568.86
   Soil Litter N                                     0.00               13.75
   N in Surface Residue                              0.00               77.54
   Soil NO3                                         30.27               19.53
   Soil NH4                                         23.95                4.35
   Soil Urea                                         0.00                0.00

   Added to / Removed from Soil:
   N in Harvest Residues from Previous Crop          0.00
   N from Organic Applications                       0.00
   N from senesced plant matter                     92.60
   Fertilizer N                                      1.00
   Leached NO3                                                           1.35
   N Denitrified                                                         0.32
   N Uptake From Soil                                                  106.62
   Ammonia volatilization                                                1.55

   Total N balance                               16793.86            16793.87

================================================================================

*DSSAT Cropping System Model Ver. 4.0.2.000               Aug 23, 2016; 20:22:27

*RUN  11        : UYSB                    
 MODEL          : CRGRO040 - Soybean         
 EXPERIMENT     : UYSB0397 SB    late to create DSS                             
 TREATMENT  1   : UYSB                    



                                         INITIAL Year/Doy      FINAL Year/Doy
                                                 2009/232            2010/046
SOIL N BALANCE                                  -----------kg N/ha-----------

   Soil Humus N                                  16646.04            16531.19
   Soil Litter N                                     0.00                6.16
   N in Surface Residue                              0.00               71.21
   Soil NO3                                         30.27               10.42
   Soil NH4                                         23.95                9.40
   Soil Urea                                         0.00                0.00

   Added to / Removed from Soil:
   N in Harvest Residues from Previous Crop          0.00
   N from Organic Applications                       0.00
   N from senesced plant matter                     81.74
   Fertilizer N                                      1.00
   Leached NO3                                                          42.44
   N Denitrified                                                         2.88
   N Uptake From Soil                                                  108.36
   Ammonia volatilization                                                0.94

   Total N balance                               16783.01            16783.01

================================================================================

*DSSAT Cropping System Model Ver. 4.0.2.000               Aug 23, 2016; 20:22:27

*RUN  12        : UYSB                    
 MODEL          : CRGRO040 - Soybean         
 EXPERIMENT     : UYSB0397 SB    late to create DSS                             
 TREATMENT  1   : UYSB                    



                                         INITIAL Year/Doy      FINAL Year/Doy
                                                 2010/232            2011/045
SOIL N BALANCE                                  -----------kg N/ha-----------

   Soil Humus N                                  16646.04            16556.22
   Soil Litter N                                     0.00               18.76
   N in Surface Residue                              0.00               86.03
   Soil NO3                                         30.27               19.55
   Soil NH4                                         23.95                6.50
   Soil Urea                                         0.00                0.00

   Added to / Removed from Soil:
   N in Harvest Residues from Previous Crop          0.00
   N from Organic Applications                       0.00
   N from senesced plant matter                    110.87
   Fertilizer N                                      1.00
   Leached NO3                                                           2.47
   N Denitrified                                                         0.39
   N Uptake From Soil                                                  120.83
   Ammonia volatilization                                                1.38

   Total N balance                               16812.13            16812.13

================================================================================

*DSSAT Cropping System Model Ver. 4.0.2.000               Aug 23, 2016; 20:22:27

*RUN  13        : UYSB                    
 MODEL          : CRGRO040 - Soybean         
 EXPERIMENT     : UYSB0397 SB    late to create DSS                             
 TREATMENT  1   : UYSB                    



                                         INITIAL Year/Doy      FINAL Year/Doy
                                                 2011/232            2012/030
SOIL N BALANCE                                  -----------kg N/ha-----------

   Soil Humus N                                  16646.04            16566.67
   Soil Litter N                                     0.00               15.29
   N in Surface Residue                              0.00               90.57
   Soil NO3                                         30.27               19.77
   Soil NH4                                         23.95                4.21
   Soil Urea                                         0.00                0.00

   Added to / Removed from Soil:
   N in Harvest Residues from Previous Crop          0.00
   N from Organic Applications                       0.00
   N from senesced plant matter                    107.65
   Fertilizer N                                      1.00
   Leached NO3                                                           6.15
   N Denitrified                                                         1.41
   N Uptake From Soil                                                  104.16
   Ammonia volatilization                                                0.69

   Total N balance                               16808.91            16808.91

================================================================================

*DSSAT Cropping System Model Ver. 4.0.2.000               Aug 23, 2016; 20:22:27

*RUN  14        : UYSB                    
 MODEL          : CRGRO040 - Soybean         
 EXPERIMENT     : UYSB0397 SB    late to create DSS                             
 TREATMENT  1   : UYSB                    



                                         INITIAL Year/Doy      FINAL Year/Doy
                                                 2012/232            2013/027
SOIL N BALANCE                                  -----------kg N/ha-----------

   Soil Humus N                                  16646.04            16543.22
   Soil Litter N                                     0.00                5.34
   N in Surface Residue                              0.00               66.23
   Soil NO3                                         30.27               11.39
   Soil NH4                                         23.95                6.93
   Soil Urea                                         0.00                0.00

   Added to / Removed from Soil:
   N in Harvest Residues from Previous Crop          0.00
   N from Organic Applications                       0.00
   N from senesced plant matter                     74.82
   Fertilizer N                                      1.00
   Leached NO3                                                          13.46
   N Denitrified                                                         1.08
   N Uptake From Soil                                                  127.11
   Ammonia volatilization                                                1.31

   Total N balance                               16776.08            16776.08

================================================================================

*DSSAT Cropping System Model Ver. 4.0.2.000               Aug 23, 2016; 20:22:27

*RUN  15        : UYSB                    
 MODEL          : CRGRO040 - Soybean         
 EXPERIMENT     : UYSB0397 SB    late to create DSS                             
 TREATMENT  1   : UYSB                    



                                         INITIAL Year/Doy      FINAL Year/Doy
                                                 2013/232            2014/027
SOIL N BALANCE                                  -----------kg N/ha-----------

   Soil Humus N                                  16646.04            16555.45
   Soil Litter N                                     0.00                9.47
   N in Surface Residue                              0.00               74.03
   Soil NO3                                         30.27               16.98
   Soil NH4                                         23.95                5.55
   Soil Urea                                         0.00                0.00

   Added to / Removed from Soil:
   N in Harvest Residues from Previous Crop          0.00
   N from Organic Applications                       0.00
   N from senesced plant matter                     87.00
   Fertilizer N                                      1.00
   Leached NO3                                                          20.11
   N Denitrified                                                         1.55
   N Uptake From Soil                                                  104.23
   Ammonia volatilization                                                0.90

   Total N balance                               16788.26            16788.27
