*SOIL NITROGEN DAILY OUTPUT FILE

*DSSAT Cropping System Model Ver. 4.0.2.000               Aug 23, 2016; 20:22:27

*RUN   1        : UYSB                    
 MODEL          : CRGRO040 - Soybean         
 EXPERIMENT     : UYSB0397 SB    late to create DSS                             
 TREATMENT  1   : UYSB                    

@YEAR DOY   DAS  NAPC  NI#M    NLCC   NIAD    NOAD   NITD   NHTD  NI1D  NI2D  NI3D  NI4D  NI5D  NI6D  NI7D  NI8D  NI9D  NI10  NH1D  NH2D  NH3D  NH4D  NH5D  NH6D  NH7D  NH8D  NH9D  NH10    NMNC    NITC    NDNC    NIMC    AMLC
 1999 232     0     0     0     0.0   54.9   16645   32.6   22.3   6.6   5.4   5.2   4.7   2.6   0.0   0.1   0.1   0.0   0.0   0.0   1.2   1.5   1.4   1.4  1.50  1.46  1.45  0.00  0.00    0.68    2.30    0.00    0.00    0.00
 1999 233     1     0     0     0.0   55.6   16645   33.9   21.7   6.6   5.7   5.3   4.8   2.7   0.0   0.1   0.1   0.0   0.0   0.1   1.0   1.4   1.4   1.4  1.51  1.43  1.41  0.00  0.00    1.37    3.63    0.00    0.00    0.00
 1999 234     2     0     0     0.0   56.3   16644   35.2   21.1   6.8   6.0   5.5   4.9   2.8   0.1   0.2   0.2   0.0   0.0   0.1   0.9   1.4   1.3   1.3  1.51  1.39  1.36  0.00  0.00    2.08    4.96    0.00    0.00    0.00
 1999 235     3     0     0     0.0   57.0   16643   36.4   20.5   6.9   6.2   5.6   5.0   2.8   0.1   0.2   0.2   0.0   0.0   0.1   0.8   1.4   1.2   1.3  1.51  1.36  1.32  0.00  0.00    2.74    6.15    0.00    0.00    0.00
 1999 236     4     1     1     0.0   58.5   16643   38.0   20.6   7.9   6.4   5.8   5.1   2.9   0.1   0.2   0.3   0.0   0.0   0.9   0.7   1.3   1.2   1.2  1.52  1.33  1.28  0.00  0.00    3.37    7.21    0.00    0.00    0.04
 1999 237     5     1     1     0.0   59.1   16642   39.4   19.7   8.7   6.5   5.9   5.2   3.0   0.1   0.3   0.3   0.0   0.0   0.2   0.7   1.3   1.2   1.2  1.52  1.29  1.24  0.00  0.00    3.96    8.59    0.00    0.00    0.08
 1999 238     6     1     1     0.0   59.6   16642   40.3   19.3   8.9   6.6   6.0   5.3   3.0   0.1   0.3   0.3   0.0   0.0   0.1   0.7   1.3   1.1   1.2  1.52  1.27  1.20  0.00  0.00    4.51    9.50    0.00    0.00    0.12
 1999 239     7     1     1     0.0   60.1   16641   41.1   19.0   8.9   6.7   6.1   5.3   3.1   0.2   0.4   0.4   0.0   0.0   0.0   0.6   1.3   1.1   1.1  1.52  1.24  1.16  0.00  0.00    5.01   10.30    0.00    0.00    0.16
 1999 240     8     1     1     0.0   60.6   16641   41.8   18.7   9.0   6.8   6.2   5.4   3.1   0.2   0.4   0.4   0.0   0.0   0.1   0.6   1.3   1.1   1.1  1.53  1.21  1.13  0.00  0.00    5.51   11.06    0.00    0.00    0.17
 1999 241     9     1     1     0.0   61.0   16640   42.6   18.5   9.0   6.9   6.3   5.4   3.2   0.2   0.4   0.5   0.0   0.0   0.1   0.6   1.3   1.0   1.1  1.53  1.19  1.10  0.00  0.00    6.00   11.81    0.00    0.00    0.18
 1999 242    10     1     1     0.0   61.5   16640   43.3   18.2   9.1   7.0   6.4   5.5   3.2   0.2   0.5   0.5   0.0   0.0   0.1   0.6   1.3   1.0   1.0  1.53  1.16  1.07  0.00  0.00    6.48   12.54    0.00    0.00    0.20
 1999 243    11     1     1     0.0   62.0   16639   44.1   17.9   9.1   7.1   6.5   5.6   3.3   0.2   0.5   0.5   0.0   0.0   0.1   0.6   1.2   1.0   1.0  1.53  1.14  1.03  0.00  0.00    7.01   13.30    0.00    0.00    0.22
 1999 244    12     1     1     0.0   62.6   16638   44.9   17.7   9.2   7.2   6.6   5.6   3.3   0.2   0.5   0.6   0.0   0.0   0.1   0.6   1.2   0.9   1.0  1.54  1.11  1.00  0.00  0.00    7.58   14.09    0.00    0.00    0.24
 1999 245    13     1     1     0.0   63.1   16638   45.6   17.5   9.3   7.3   6.8   5.7   3.4   0.3   0.6   0.6   0.0   0.0   0.1   0.5   1.2   0.9   1.0  1.54  1.09  0.98  0.00  0.00    8.14   14.87    0.00    0.00    0.25
 1999 246    14     1     1     0.0   63.7   16637   46.5   17.3   8.4   7.9   6.9   5.7   3.4   0.3   0.6   0.6   0.0   0.0   0.1   0.5   1.2   0.9   0.9  1.54  1.07  0.95  0.00  0.00    8.75   15.68    0.00    0.00    0.26
 1999 247    15     1     1     0.0   64.3   16637   47.2   17.1   7.7   8.4   7.0   5.8   3.5   0.3   0.6   0.7   0.0   0.0   0.2   0.5   1.2   0.9   0.9  1.54  1.05  0.92  0.00  0.00    9.34   16.44    0.00    0.00    0.26
 1999 248    16     1     1     0.0   64.7   16636   48.0   16.7   7.1   8.8   7.1   5.9   3.5   0.3   0.7   0.7   0.0   0.0   0.1   0.5   1.2   0.8   0.9  1.55  1.02  0.89  0.00  0.00    9.76   17.22    0.00    0.00    0.26
 1999 249    17     1     1     0.0   65.1   16636   48.7   16.4   5.3   9.8   7.2   5.9   3.6   0.3   0.7   0.7   0.0   0.0   0.1   0.5   1.1   0.8   0.9  1.55  1.00  0.87  0.00  0.00   10.17   17.92    0.00    0.00    0.27
 1999 250    18     1     1     0.0   65.5   16635   49.3   16.2   3.6   9.1   8.4   6.0   3.6   0.3   0.7   0.8   0.0   0.0   0.1   0.5   1.1   0.8   0.9  1.55  0.98  0.84  0.00  0.00   10.61   18.61    0.00    0.00    0.27
 1999 251    19     1     1     0.0   66.0   16635   49.9   16.1   3.6   8.9   8.7   6.0   3.6   0.4   0.8   0.8   0.0   0.0   0.2   0.6   1.1   0.8   0.8  1.55  0.97  0.82  0.00  0.00   11.10   19.18    0.00    0.00    0.27
 1999 252    20     1     1     0.0   66.5   16634   50.6   15.9   3.8   8.9   8.8   6.1   3.7   0.4   0.8   0.8   0.0   0.0   0.1   0.5   1.1   0.7   0.8  1.56  0.95  0.80  0.00  0.00   11.61   19.91    0.00    0.00    0.27
 1999 253    21     1     1     0.0   67.0   16634   51.3   15.7   3.9   9.0   8.9   6.1   3.7   0.4   0.8   0.8   0.0   0.0   0.1   0.5   1.1   0.7   0.8  1.56  0.93  0.77  0.00  0.00   12.13   20.61    0.00    0.00    0.28
 1999 254    22     1     1     0.0   67.5   16633   51.9   15.5   4.0   9.0   9.0   6.2   3.7   0.4   0.9   0.9   0.0   0.0   0.1   0.5   1.1   0.7   0.8  1.56  0.91  0.75  0.00  0.00   12.63   21.28    0.00    0.00    0.28
 1999 255    23     1     1     0.0   67.9   16633   52.6   15.4   4.0   9.1   9.1   6.3   3.8   0.4   0.9   0.9   0.0   0.0   0.1   0.5   1.1   0.7   0.8  1.56  0.89  0.73  0.00  0.00   13.10   21.91    0.00    0.00    0.29
 1999 256    24     1     1     0.0   68.3   16632   53.2   15.2   3.6   9.4   9.1   6.3   3.8   0.4   0.9   0.9   0.0   0.0   0.1   0.5   1.1   0.7   0.8  1.57  0.88  0.71  0.00  0.00   13.58   22.53    0.00    0.00    0.29
 1999 257    25     1     1     0.0   68.8   16632   53.8   15.1   3.6   9.5   9.3   6.4   3.8   0.5   0.9   0.9   0.0   0.0   0.1   0.5   1.1   0.6   0.7  1.57  0.86  0.69  0.00  0.00   14.08   23.16    0.00    0.00    0.29
 1999 258    26     1     1     0.0   69.3   16631   54.4   14.9   3.7   9.5   9.4   6.4   3.9   0.5   1.0   1.0   0.0   0.0   0.1   0.5   1.1   0.6   0.7  1.57  0.85  0.67  0.00  0.00   14.58   23.79    0.00    0.00    0.29
 1999 259    27     1     1     0.0   69.8   16631   55.0   14.8   3.8   9.6   9.4   6.5   3.9   0.5   1.0   1.0   0.0   0.0   0.1   0.5   1.1   0.6   0.7  1.57  0.83  0.66  0.00  0.00   15.09   24.43    0.00    0.00    0.30
 1999 260    28     1     1     0.0   70.3   16630   55.6   14.7   3.9   9.6   9.5   6.5   3.9   0.5   1.0   1.0   0.0   0.0   0.1   0.5   1.0   0.6   0.7  1.57  0.82  0.64  0.00  0.00   15.63   25.09    0.00    0.00    0.30
 1999 261    29     1     1     0.0   70.8   16630   56.3   14.5   4.0   9.7   9.6   6.6   4.0   0.5   1.0   1.0   0.0   0.0   0.1   0.5   1.0   0.6   0.7  1.58  0.80  0.62  0.00  0.00   16.19   25.77    0.00    0.00    0.30
 1999 262    30     1     1     0.0   71.3   16629   56.9   14.4   4.1   9.8   9.7   6.6   4.0   0.6   1.1   1.0   0.0   0.0   0.1   0.5   1.0   0.6   0.7  1.58  0.79  0.60  0.00  0.00   16.76   26.47    0.00    0.00    0.30
 1999 263    31     1     1     0.0   71.8   16629   57.6   14.3   4.2   9.9   9.8   6.7   4.0   0.6   1.1   1.1   0.0   0.0   0.1   0.5   1.0   0.6   0.7  1.58  0.78  0.59  0.00  0.00   17.34   27.17    0.00    0.00    0.31
 1999 264    32     1     1     0.0   72.4   16628   58.2   14.1   4.4  10.0   9.9   6.7   4.1   0.6   1.1   1.1   0.0   0.0   0.1   0.5   1.0   0.5   0.7  1.58  0.76  0.57  0.00  0.00   17.94   27.89    0.00    0.00    0.31
 1999 265    33     1     1     0.0   72.9   16628   58.9   14.0   4.5  10.1   9.9   6.8   4.1   0.6   1.1   1.1   0.0   0.0   0.1   0.4   1.0   0.5   0.6  1.58  0.75  0.56  0.00  0.00   18.54   28.60    0.00    0.00    0.31
 1999 266    34     1     1     0.0   73.4   16627   59.5   13.9   4.7  10.2  10.0   6.8   4.1   0.6   1.2   1.1   0.0   0.0   0.1   0.4   1.0   0.5   0.6  1.58  0.74  0.54  0.00  0.00   19.12   29.28    0.00    0.00    0.31
 1999 267    35     1     1     0.0   73.8   16626   60.1   13.8   4.8  10.2  10.1   6.9   4.2   0.6   1.2   1.1   0.0   0.0   0.1   0.4   1.0   0.5   0.6  1.58  0.72  0.53  0.00  0.00   19.66   29.91    0.00    0.00    0.32
 1999 268    36     1     1     0.0   74.3   16626   60.6   13.7   4.9  10.3  10.2   6.9   4.2   0.7   1.2   1.2   0.0   0.0   0.1   0.4   1.0   0.5   0.6  1.58  0.71  0.52  0.00  0.00   20.20   30.55    0.00    0.00    0.32
 1999 269    37     1     1     0.0   74.8   16625   61.2   13.6   5.1  10.3  10.2   7.0   4.2   0.7   1.2   1.2   0.0   0.0   0.1   0.4   1.0   0.5   0.6  1.58  0.70  0.50  0.00  0.00   20.72   31.14    0.00    0.00    0.32
 1999 270    38     1     1     0.0   75.2   16625   61.7   13.5   5.2  10.4  10.3   7.0   4.3   0.7   1.2   1.2   0.0   0.0   0.1   0.4   1.0   0.5   0.6  1.59  0.69  0.49  0.00  0.00   21.21   31.71    0.00    0.00    0.32
 1999 271    39     1     1     0.0   75.6   16624   62.2   13.4   5.3  10.4  10.4   7.0   4.3   0.7   1.3   1.2   0.0   0.0   0.1   0.4   1.0   0.5   0.6  1.59  0.68  0.48  0.00  0.00   21.70   32.27    0.00    0.00    0.32
 1999 272    40     1     1     0.0   76.0   16624   62.7   13.3   5.5  10.4  10.5   7.1   4.3   0.7   1.3   1.2   0.0   0.0   0.1   0.4   1.0   0.5   0.6  1.59  0.67  0.47  0.00  0.00   22.18   32.82    0.00    0.00    0.33
 1999 273    41     1     1     0.0   76.4   16623   63.1   13.3   5.6  10.5  10.5   7.1   4.3   0.7   1.3   1.2   0.0   0.0   0.1   0.4   1.0   0.5   0.6  1.59  0.66  0.46  0.00  0.00   22.64   33.35    0.00    0.00    0.33
 1999 274    42     1     1     0.0   76.7   16623   63.6   13.2   4.0  11.4  10.6   7.1   4.4   0.8   1.3   1.3   0.0   0.0   0.1   0.4   1.0   0.5   0.6  1.59  0.65  0.44  0.00  0.00   23.12   33.88    0.00    0.00    0.33
 1999 275    43     1     1     0.0   77.2   16622   64.0   13.2   3.9  11.3  10.8   7.2   4.4   0.8   1.3   1.3   0.0   0.0   0.2   0.4   1.0   0.5   0.6  1.59  0.64  0.43  0.00  0.00   23.61   34.37    0.00    0.00    0.33
 1999 276    44     1     1     0.0   77.6   16622   64.4   13.1   4.0  11.3  10.9   7.2   4.4   0.8   1.4   1.3   0.0   0.0   0.1   0.4   1.0   0.5   0.6  1.59  0.63  0.42  0.00  0.00   24.08   34.89    0.00    0.00    0.34
 1999 277    45     1     1     0.0   77.9   16622   64.9   13.1   4.1  11.2  11.0   7.2   4.4   0.8   1.4   1.3   0.0   0.0   0.1   0.4   1.0   0.5   0.6  1.59  0.62  0.42  0.00  0.00   24.52   35.37    0.00    0.00    0.34
 1999 278    46     1     1     0.0   78.3   16621   65.3   13.0   4.1  11.3  11.0   7.3   4.4   0.8   1.4   1.3   0.0   0.0   0.1   0.4   1.0   0.5   0.6  1.59  0.62  0.41  0.00  0.00   24.93   35.83    0.00    0.00    0.34
 1999 279    47     1     1     0.0   78.6   16621   65.6   13.0   4.2  11.3  11.1   7.3   4.5   0.8   1.4   1.3   0.0   0.0   0.1   0.4   1.0   0.5   0.6  1.59  0.61  0.40  0.00  0.00   25.31   36.25    0.00    0.00    0.35
 1999 280    48     1     1     0.0   78.9   16620   66.0   12.9   3.5  11.7  11.2   7.3   4.5   0.9   1.4   1.3   0.0   0.0   0.1   0.4   1.0   0.5   0.6  1.59  0.60  0.39  0.00  0.00   25.72   36.69    0.00    0.00    0.35
 1999 281    49     1     1     0.0   79.2   16620   66.4   12.9   3.4  11.6  11.3   7.3   4.5   0.9   1.4   1.3   0.0   0.0   0.1   0.4   1.0   0.5   0.6  1.59  0.59  0.38  0.00  0.00   26.14   37.14    0.00    0.00    0.35
 1999 282    50     1     1     0.0   79.6   16619   66.7   12.8   3.4  11.5  11.4   7.4   4.5   0.9   1.5   1.4   0.0   0.0   0.1   0.5   1.0   0.5   0.6  1.59  0.59  0.37  0.00  0.00   26.59   37.61    0.00    0.00    0.35
 1999 283    51     1     1     0.0   79.9   16619   67.1   12.8   3.5  11.5  11.5   7.4   4.5   0.9   1.5   1.4   0.0   0.0   0.1   0.5   1.0   0.5   0.6  1.59  0.58  0.37  0.00  0.00   27.06   38.10    0.00    0.00    0.35
 1999 284    52     1     1     0.0   80.2   16618   67.4   12.8   3.6  11.5  11.6   7.4   4.6   0.9   1.5   1.4   0.0   0.0   0.1   0.5   1.0   0.5   0.5  1.59  0.57  0.36  0.00  0.00   27.56   38.61    0.00    0.00    0.36
 1999 285    53     1     1     0.0   80.4   16618   67.7   12.7   1.7   9.2  13.3   7.9   4.6   0.9   1.5   1.4   0.0   0.0   0.1   0.5   1.0   0.5   0.5  1.59  0.56  0.35  0.00  0.00   28.07   39.14    0.00    0.00    0.36
 1999 286    54     1     1     0.0   80.9   16617   67.9   12.9   0.9   6.9  12.0   9.1   5.9   1.0   1.5   1.4   0.0   0.0   0.2   0.6   1.0   0.5   0.5  1.59  0.56  0.34  0.00  0.00   28.62   39.43    0.00    0.00    0.36
 1999 287    55     1     1     0.0   81.3   16617   68.1   13.2   1.1   6.8  11.7   8.8   6.0   1.2   1.5   1.4   0.0   0.0   0.1   0.6   1.1   0.5   0.6  1.58  0.55  0.34  0.00  0.00   29.17   39.71    0.00    0.00    0.37
 1999 288    56     1     1     0.2   81.5   16616   68.0   13.5   1.2   6.7  11.6   8.7   6.0   1.3   1.5   1.4   0.0   0.0   0.1   0.7   1.2   0.5   0.6  1.60  0.54  0.33  0.00  0.00   29.73   39.94    0.00    0.00    0.37
 1999 289    57     1     1     0.3   81.8   16616   68.2   13.7   1.4   6.8  11.5   8.6   6.0   1.4   1.6   1.4   0.0   0.0   0.1   0.7   1.3   0.6   0.6  1.61  0.54  0.32  0.00  0.00   30.29   40.29    0.00    0.00    0.37
 1999 290    58     1     1     0.3   82.0   16615   68.3   13.8   1.7   6.8  11.4   8.5   6.1   1.4   1.6   1.5   0.0   0.0   0.1   0.6   1.3   0.6   0.6  1.61  0.53  0.32  0.00  0.00   30.84   40.70    0.00    0.00    0.38
 1999 291    59     1     1     0.3   82.2   16615   68.5   13.7   2.0   6.8  11.4   8.5   6.1   1.4   1.6   1.5   0.0   0.0   0.1   0.6   1.3   0.6   0.6  1.60  0.53  0.31  0.00  0.00   31.42   41.27    0.01    0.00    0.38
 1999 292    60     1     1     0.3   82.3   16614   68.7   13.7   2.3   6.8  11.4   8.5   6.0   1.5   1.6   1.5   0.0   0.0   0.1   0.6   1.2   0.6   0.7  1.60  0.52  0.30  0.00  0.00   32.05   41.87    0.02    0.00    0.38
 1999 293    61     1     1     0.3   82.5   16613   68.9   13.5   2.6   6.8  11.4   8.5   6.0   1.5   1.6   1.5   0.0   0.0   0.1   0.5   1.2   0.6   0.7  1.59  0.51  0.30  0.00  0.00   32.73   42.59    0.02    0.00    0.38
 1999 294    62     1     1     0.3   82.7   16613   69.2   13.4   2.8   6.9  11.4   8.5   6.0   1.5   1.6   1.5   0.0   0.0   0.1   0.5   1.2   0.6   0.7  1.59  0.51  0.29  0.00  0.00   33.45   43.32    0.03    0.00    0.39
 1999 295    63     1     1     0.3   82.7   16612   69.4   13.3   3.1   6.9  11.4   8.5   6.0   1.5   1.6   1.5   0.0   0.0   0.1   0.5   1.1   0.6   0.7  1.58  0.50  0.29  0.00  0.00   34.19   44.08    0.03    0.00    0.39
 1999 296    64     1     1     0.3   82.8   16611   69.6   13.2   3.3   7.0  11.3   8.5   6.0   1.5   1.6   1.5   0.0   0.0   0.1   0.5   1.1   0.6   0.7  1.58  0.50  0.28  0.00  0.00   34.91   44.80    0.03    0.00    0.39
 1999 297    65     1     1     0.3   82.9   16610   69.8   13.1   3.6   7.0  11.3   8.5   6.0   1.5   1.6   1.5   0.0   0.0   0.1   0.5   1.1   0.6   0.7  1.57  0.49  0.28  0.00  0.00   35.62   45.55    0.03    0.00    0.40
 1999 298    66     1     1     0.3   82.9   16610   70.0   13.0   3.8   7.0  11.3   8.4   6.0   1.5   1.7   1.5   0.0   0.0   0.1   0.5   1.1   0.6   0.7  1.56  0.49  0.27  0.00  0.00   36.31   46.26    0.03    0.00    0.40
 1999 299    67     1     1     0.3   82.8   16609   70.0   12.8   4.0   7.1  11.2   8.4   6.0   1.5   1.7   1.5   0.0   0.0   0.1   0.5   1.1   0.6   0.7  1.56  0.48  0.27  0.00  0.00   36.97   46.94    0.03    0.00    0.42
 1999 300    68     1     1     0.3   82.2   16608   69.6   12.7   4.1   7.0  11.0   8.4   5.9   1.5   1.7   1.5   0.0   0.0   0.1   0.5   1.0   0.6   0.7  1.54  0.48  0.26  0.00  0.00   37.61   47.58    0.03    0.00    0.44
 1999 301    69     1     1     0.3   81.5   16608   69.0   12.5   4.3   7.0  10.8   8.3   5.9   1.5   1.7   1.5   0.0   0.0   0.1   0.5   1.0   0.6   0.6  1.52  0.48  0.26  0.00  0.00   38.26   48.23    0.03    0.00    0.46
 1999 302    70     1     1     0.3   80.7   16607   68.5   12.3   4.4   6.9  10.6   8.2   5.9   1.5   1.7   1.5   0.0   0.0   0.1   0.5   1.0   0.5   0.6  1.51  0.47  0.25  0.00  0.00   38.94   48.90    0.03    0.00    0.48
 1999 303    71     1     1     0.3   79.6   16606   67.6   12.0   4.5   6.9  10.4   8.1   5.8   1.5   1.7   1.5   0.0   0.0   0.1   0.5   0.9   0.5   0.6  1.48  0.47  0.25  0.00  0.00   39.65   49.58    0.03    0.00    0.49
 1999 304    72     1     1     0.3   78.9   16606   67.0   11.8   4.6   6.8  10.2   8.0   5.7   1.5   1.7   1.5   0.0   0.0   0.1   0.5   0.9   0.5   0.6  1.46  0.47  0.25  0.00  0.00   40.36   50.27    0.03    0.00    0.51
 1999 305    73     1     1     0.3   77.5   16605   65.9   11.6   4.7   6.7   9.9   7.9   5.6   1.5   1.6   1.5   0.0   0.0   0.1   0.4   0.9   0.5   0.6  1.43  0.46  0.24  0.00  0.00   41.07   50.94    0.03    0.00    0.53
 1999 306    74     1     1     0.3   76.8   16604   65.3   11.4   4.8   6.7   9.7   7.8   5.6   1.5   1.6   1.5   0.0   0.0   0.1   0.4   0.9   0.5   0.6  1.42  0.46  0.24  0.00  0.00   41.76   51.58    0.03    0.00    0.55
 1999 307    75     1     1     0.3   74.7   16604   63.6   11.1   4.9   6.5   9.2   7.6   5.4   1.5   1.6   1.5   0.0   0.0   0.1   0.4   0.8   0.5   0.5  1.38  0.46  0.23  0.00  0.00   42.44   52.20    0.03    0.00    0.57
 1999 308    76     1     1     0.3   72.5   16603   61.6   10.8   4.9   6.3   8.8   7.4   5.3   1.4   1.6   1.5   0.0   0.0   0.1   0.4   0.8   0.5   0.5  1.33  0.45  0.23  0.00  0.00   43.08   52.79    0.03    0.00    0.58
 1999 309    77     1     1     0.3   72.0   16602   61.3   10.7   5.0   6.3   8.6   7.3   5.2   1.4   1.6   1.5   0.0   0.0   0.1   0.4   0.8   0.5   0.5  1.32  0.45  0.23  0.00  0.00   43.70   53.32    0.03    0.00    0.60
 1999 310    78     1     1     0.3   69.5   16602   59.1   10.4   5.0   6.1   8.1   7.1   5.0   1.4   1.6   1.5   0.0   0.0   0.1   0.4   0.8   0.5   0.5  1.27  0.45  0.22  0.00  0.00   44.29   53.84    0.03    0.00    0.62
 1999 311    79     1     1     0.3   66.2   16601   56.2   10.0   4.9   5.9   7.5   6.8   4.8   1.3   1.5   1.5   0.0   0.0   0.1   0.4   0.7   0.5   0.5  1.21  0.44  0.22  0.00  0.00   44.88   54.37    0.03    0.00    0.64
 1999 312    80     1     1     0.3   64.4   16601   54.5    9.8   4.9   5.7   7.1   6.6   4.6   1.3   1.5   1.4   0.0   0.0   0.1   0.4   0.7   0.5   0.5  1.17  0.44  0.22  0.00  0.00   45.45   54.85    0.03    0.00    0.65
 1999 313    81     1     1     0.3   62.1   16600   52.5    9.6   4.8   5.5   6.7   6.3   4.4   1.2   1.4   1.4   0.0   0.0   0.1   0.4   0.6   0.5   0.5  1.12  0.44  0.22  0.00  0.00   46.00   55.31    0.03    0.00    0.67
 1999 314    82     1     1     0.3   59.9   16600   50.6    9.3   4.8   5.4   6.4   6.1   4.3   1.2   1.4   1.4   0.0   0.0   0.1   0.4   0.6   0.5   0.5  1.08  0.44  0.21  0.00  0.00   46.54   55.77    0.03    0.00    0.69
 1999 315    83     1     1     0.3   57.4   16599   48.3    9.1   4.7   5.2   5.9   5.9   4.0   1.1   1.4   1.4   0.0   0.0   0.1   0.4   0.6   0.5   0.5  1.02  0.43  0.21  0.00  0.00   47.06   56.21    0.03    0.00    0.70
 1999 316    84     1     1     0.3   53.6   16598   45.0    8.6   4.6   4.8   5.4   5.5   3.7   1.1   1.3   1.3   0.0   0.0   0.1   0.4   0.5   0.5   0.5  0.94  0.43  0.21  0.00  0.00   47.56   56.63    0.03    0.00    0.72
 1999 317    85     1     1     0.3   49.1   16598   40.9    8.2   4.5   4.4   4.8   5.0   3.3   0.9   1.2   1.3   0.0   0.0   0.1   0.4   0.5   0.5   0.5  0.84  0.43  0.20  0.00  0.00   48.07   57.06    0.03    0.00    0.72
 1999 318    86     1     1     0.3   44.7   16597   36.9    7.8   4.3   4.1   4.2   4.5   3.0   0.8   1.1   1.2   0.0   0.0   0.1   0.4   0.5   0.5   0.5  0.74  0.43  0.20  0.00  0.00   48.61   57.53    0.03    0.00    0.72
 1999 319    87     1     1     0.3   40.7   16597   33.4    7.4   4.3   3.7   3.7   4.1   2.6   0.7   1.0   1.1   0.0   0.0   0.1   0.3   0.5   0.5   0.5  0.65  0.42  0.20  0.00  0.00   49.17   58.03    0.03    0.00    0.72
 1999 320    88     1     1     0.3   37.3   16596   30.3    7.0   4.2   3.5   3.3   3.7   2.3   0.6   0.9   1.1   0.0   0.0   0.1   0.3   0.5   0.5   0.5  0.58  0.42  0.20  0.00  0.00   49.75   58.55    0.03    0.00    0.72
 1999 321    89     1     1     0.3   34.4   16596   27.6    6.7   4.2   3.2   2.9   3.3   2.1   0.6   0.8   1.0   0.0   0.0   0.1   0.3   0.5   0.5   0.5  0.51  0.42  0.20  0.00  0.00   50.33   59.07    0.03    0.00    0.73
 1999 322    90     1     1     0.3   32.0   16595   25.3    6.7   4.2   3.0   2.6   3.0   1.8   0.5   0.7   1.0   0.0   0.0   0.1   0.3   0.5   0.5   0.5  0.52  0.42  0.19  0.00  0.00   50.89   59.58    0.03    0.00    0.73
 1999 323    91     1     1     0.3   30.2   16595   23.5    6.6   4.2   2.9   2.4   2.7   1.6   0.5   0.7   0.9   0.0   0.0   0.1   0.3   0.5   0.5   0.5  0.51  0.42  0.19  0.00  0.00   51.44   60.09    0.03    0.00    0.73
 1999 324    92     1     1     0.3   28.6   16594   22.0    6.6   4.3   2.7   2.2   2.5   1.4   0.5   0.6   0.8   0.0   0.0   0.1   0.3   0.5   0.5   0.5  0.51  0.41  0.19  0.00  0.00   51.97   60.59    0.03    0.00    0.73
 1999 325    93     1     1     0.3   27.3   16594   20.7    6.5   4.4   2.6   2.1   2.3   1.3   0.5   0.5   0.8   0.0   0.0   0.1   0.3   0.5   0.5   0.5  0.51  0.41  0.19  0.00  0.00   52.49   61.08    0.03    0.00    0.73
 1999 326    94     1     1     0.3   26.2   16593   19.7    6.5   4.4   2.5   1.9   2.1   1.2   0.5   0.5   0.7   0.0   0.0   0.1   0.2   0.5   0.5   0.5  0.51  0.41  0.19  0.00  0.00   52.99   61.55    0.03    0.00    0.74
 1999 327    95     1     1     0.3   25.2   16593   18.7    6.4   4.5   2.4   1.8   1.9   1.1   0.5   0.5   0.7   0.0   0.0   0.1   0.2   0.5   0.5   0.5  0.51  0.41  0.18  0.00  0.00   53.45   62.01    0.03    0.00    0.74
 1999 328    96     1     1     0.3   24.5   16592   18.1    6.4   4.6   2.4   1.8   1.8   1.0   0.5   0.5   0.7   0.0   0.0   0.1   0.2   0.5   0.5   0.5  0.51  0.40  0.18  0.00  0.00   53.90   62.44    0.03    0.00    0.74
 1999 329    97     1     1     0.3   23.8   16592   17.5    6.4   3.2   3.1   1.7   1.7   0.9   0.5   0.5   0.6   0.0   0.0   0.1   0.2   0.5   0.4   0.5  0.51  0.40  0.18  0.00  0.00   54.33   62.87    0.03    0.00    0.74
 1999 330    98     1     1     0.3   20.5   16591   14.1    6.4   0.2   1.9   1.7   1.6   0.9   0.5   0.5   0.6   0.0   0.0   0.1   0.3   0.5   0.4   0.5  0.51  0.40  0.18  0.00  0.00   54.84   63.29    0.03    0.00    0.74
 1999 331    99     1     1     0.3   19.2   16591   12.8    6.4   0.4   1.0   1.6   1.5   0.8   0.5   0.5   0.6   0.0   0.0   0.1   0.3   0.5   0.4   0.5  0.51  0.39  0.18  0.00  0.00   55.34   63.76    0.03    0.00    0.74
 1999 332   100     1     1     0.3   18.6   16590   12.2    6.4   0.5   0.7   1.6   1.4   0.7   0.5   0.5   0.5   0.0   0.0   0.1   0.3   0.5   0.4   0.5  0.52  0.39  0.17  0.00  0.00   55.83   64.22    0.03    0.00    0.75
 1999 333   101     1     1     0.3   18.0   16590   11.7    6.3   0.6   0.6   1.5   1.3   0.7   0.5   0.5   0.5   0.0   0.0   0.1   0.3   0.5   0.4   0.5  0.51  0.39  0.17  0.00  0.00   56.30   64.71    0.03    0.00    0.75
 1999 334   102     1     1     0.3   17.9   16589   11.6    6.3   0.7   0.7   1.5   1.3   0.7   0.5   0.5   0.5   0.0   0.0   0.1   0.3   0.5   0.4   0.4  0.52  0.38  0.17  0.00  0.00   56.75   65.19    0.03    0.00    0.75
 1999 335   103     1     1     0.3   17.8   16589   11.7    6.1   0.8   0.7   1.5   1.2   0.6   0.5   0.5   0.5   0.0   0.0   0.1   0.3   0.5   0.4   0.4  0.51  0.38  0.17  0.00  0.00   57.18   65.69    0.03    0.00    0.75
 1999 336   104     1     1     0.3   17.9   16589   11.8    6.1   0.9   0.8   1.5   1.2   0.6   0.5   0.5   0.5   0.0   0.0   0.1   0.2   0.5   0.4   0.4  0.52  0.38  0.17  0.00  0.00   57.62   66.19    0.03    0.00    0.76
 1999 337   105     1     1     0.3   17.2   16588   11.2    6.1   0.2   0.9   1.5   1.1   0.6   0.5   0.5   0.5   0.0   0.0   0.2   0.2   0.5   0.4   0.4  0.51  0.37  0.16  0.00  0.00   58.10   66.61    0.03    0.00    0.76
 1999 338   106     1     1     0.3   16.9   16588   11.0    6.0   0.5   0.6   1.5   1.1   0.6   0.5   0.5   0.5   0.0   0.0   0.0   0.3   0.5   0.4   0.4  0.52  0.37  0.16  0.00  0.00   58.61   67.19    0.03    0.00    0.76
 1999 339   107     1     1     0.3   16.8   16587   10.9    5.9   0.5   0.5   1.5   1.1   0.6   0.5   0.5   0.5   0.0   0.0   0.1   0.3   0.5   0.4   0.4  0.51  0.37  0.16  0.00  0.00   59.06   67.61    0.03    0.00    0.76
 1999 340   108     1     1     0.3   16.8   16587   10.9    5.9   0.4   0.6   1.5   1.0   0.6   0.5   0.5   0.5   0.0   0.0   0.1   0.3   0.5   0.4   0.4  0.52  0.36  0.16  0.00  0.00   59.49   68.03    0.03    0.00    0.77
 1999 341   109     1     1     0.3   16.6   16586   10.8    5.8   0.5   0.5   1.5   1.0   0.5   0.5   0.5   0.5   0.0   0.0   0.1   0.3   0.5   0.4   0.4  0.51  0.36  0.16  0.00  0.00   59.86   68.44    0.03    0.00    0.77
 1999 342   110     1     1     0.3   16.6   16586   10.8    5.8   0.6   0.6   1.5   1.0   0.5   0.5   0.5   0.5   0.0   0.0   0.1   0.3   0.5   0.4   0.4  0.51  0.36  0.15  0.00  0.00   60.21   68.81    0.03    0.00    0.77
 1999 343   111     1     1     0.3   16.6   16586   10.9    5.7   0.7   0.6   1.5   1.0   0.5   0.5   0.5   0.5   0.0   0.0   0.1   0.3   0.5   0.3   0.4  0.51  0.35  0.15  0.00  0.00   60.54   69.17    0.03    0.00    0.77
 1999 344   112     1     1     0.3   16.6   16585   10.9    5.7   0.7   0.6   1.5   1.0   0.5   0.5   0.5   0.5   0.0   0.0   0.0   0.2   0.4   0.3   0.4  0.51  0.35  0.15  0.00  0.00   60.84   69.52    0.03    0.00    0.77
 1999 345   113     1     1     0.3   16.6   16585   11.0    5.6   0.8   0.7   1.6   1.0   0.5   0.5   0.5   0.5   0.0   0.0   0.0   0.2   0.4   0.3   0.4  0.51  0.35  0.15  0.00  0.00   61.14   69.87    0.03    0.00    0.78
 1999 346   114     1     1     0.3   16.7   16585   11.2    5.5   0.8   0.7   1.6   1.0   0.5   0.5   0.5   0.5   0.0   0.0   0.0   0.2   0.4   0.3   0.4  0.51  0.34  0.15  0.00  0.00   61.44   70.23    0.03    0.00    0.78
 1999 347   115     1     1     0.3   16.6   16585   11.2    5.5   0.2   0.8   1.7   1.0   0.5   0.5   0.5   0.5   0.0   0.0   0.2   0.2   0.4   0.3   0.4  0.51  0.34  0.14  0.00  0.00   61.83   70.59    0.03    0.00    0.78
 1999 348   116     1     1     0.3   16.8   16584   11.3    5.4   0.5   0.8   1.7   1.0   0.5   0.5   0.5   0.5   0.0   0.0   0.1   0.2   0.4   0.3   0.4  0.51  0.33  0.14  0.00  0.00   62.23   71.06    0.03    0.00    0.78
 1999 349   117     1     1     0.3   16.9   16584   11.6    5.3   0.6   0.8   1.7   1.0   0.5   0.5   0.5   0.5   0.0   0.0   0.1   0.2   0.4   0.3   0.3  0.51  0.33  0.14  0.00  0.00   62.59   71.45    0.03    0.00    0.78
 1999 350   118     1     1     0.3   17.0   16584   11.7    5.3   0.7   0.9   1.8   1.0   0.6   0.5   0.5   0.5   0.0   0.0   0.1   0.2   0.4   0.3   0.3  0.51  0.33  0.14  0.00  0.00   62.93   71.83    0.03    0.00    0.78
 1999 351   119     1     1     0.3   17.2   16583   11.9    5.2   0.8   0.9   1.8   1.0   0.6   0.5   0.5   0.5   0.0   0.0   0.0   0.2   0.4   0.3   0.3  0.51  0.32  0.14  0.00  0.00   63.24   72.20    0.03    0.00    0.79
 1999 352   120     1     1     0.3   17.3   16583   12.2    5.1   0.8   0.9   1.9   1.0   0.6   0.5   0.5   0.5   0.0   0.0   0.0   0.2   0.4   0.3   0.3  0.50  0.32  0.14  0.00  0.00   63.54   72.55    0.03    0.00    0.79
 1999 353   121     1     1     0.3   17.4   16583   12.4    5.1   0.9   1.0   1.9   1.0   0.6   0.5   0.5   0.5   0.0   0.0   0.0   0.2   0.4   0.3   0.3  0.51  0.31  0.13  0.00  0.00   63.85   72.92    0.03    0.00    0.79
 1999 354   122     1     1     0.3   17.7   16582   12.6    5.0   0.9   1.1   2.0   1.0   0.6   0.5   0.5   0.5   0.0   0.0   0.0   0.2   0.4   0.3   0.3  0.51  0.31  0.13  0.00  0.00   64.15   73.28    0.03    0.00    0.79
 1999 355   123     1     1     0.3   17.8   16582   12.9    4.9   1.0   1.1   2.0   1.1   0.6   0.5   0.5   0.5   0.0   0.0   0.0   0.1   0.3   0.3   0.3  0.50  0.30  0.13  0.00  0.00   64.45   73.63    0.03    0.00    0.79
 1999 356   124     1     1     0.3   18.0   16582   13.1    4.9   1.0   1.2   2.1   1.1   0.6   0.5   0.5   0.5   0.0   0.0   0.0   0.1   0.3   0.3   0.3  0.51  0.30  0.13  0.00  0.00   64.74   73.96    0.03    0.00    0.79
 1999 357   125     1     1     0.3   18.2   16582   13.4    4.8   1.1   1.2   2.1   1.1   0.7   0.5   0.5   0.5   0.0   0.0   0.0   0.1   0.3   0.3   0.3  0.51  0.30  0.13  0.00  0.00   65.03   74.29    0.03    0.00    0.79
 1999 358   126     1     1     0.3   18.3   16581   13.6    4.8   1.1   1.3   2.2   1.1   0.7   0.5   0.5   0.5   0.0   0.0   0.0   0.1   0.3   0.3   0.3  0.51  0.29  0.13  0.00  0.00   65.29   74.59    0.03    0.00    0.79
 1999 359   127     1     1     0.3   18.5   16581   13.8    4.7   1.2   1.3   2.2   1.1   0.7   0.5   0.5   0.5   0.0   0.0   0.0   0.1   0.3   0.2   0.3  0.51  0.29  0.12  0.00  0.00   65.56   74.90    0.03    0.00    0.79
 1999 360   128     1     1     0.3   18.8   16581   14.1    4.7   1.2   1.4   2.3   1.2   0.7   0.5   0.5   0.5   0.0   0.0   0.0   0.1   0.3   0.2   0.3  0.51  0.28  0.12  0.00  0.00   65.83   75.21    0.03    0.00    0.79
 1999 361   129     1     1     0.3   19.0   16581   14.4    4.6   1.3   1.4   2.3   1.2   0.7   0.5   0.5   0.5   0.0   0.0   0.0   0.1   0.3   0.2   0.3  0.51  0.28  0.12  0.00  0.00   66.11   75.54    0.03    0.00    0.79
 1999 362   130     1     1     0.3   19.3   16580   14.7    4.6   1.3   1.5   2.4   1.2   0.7   0.5   0.5   0.5   0.0   0.0   0.0   0.1   0.3   0.2   0.3  0.52  0.28  0.12  0.00  0.00   66.41   75.87    0.03    0.00    0.79
 1999 363   131     1     1     0.3   19.5   16580   15.0    4.5   1.4   1.6   2.4   1.2   0.8   0.5   0.5   0.5   0.0   0.0   0.0   0.1   0.3   0.2   0.3  0.51  0.27  0.12  0.00  0.00   66.70   76.22    0.03    0.00    0.79
 1999 364   132     1     1     0.3   19.8   16580   15.3    4.5   1.4   1.6   2.5   1.3   0.8   0.5   0.6   0.5   0.0   0.0   0.1   0.1   0.3   0.2   0.3  0.52  0.27  0.12  0.00  0.00   66.99   76.51    0.03    0.00    0.79
 1999 365   133     1     1     0.3   20.0   16579   15.6    4.5   1.6   1.6   2.5   1.3   0.8   0.5   0.6   0.5   0.0   0.0   0.0   0.1   0.3   0.2   0.2  0.51  0.27  0.11  0.00  0.00   67.26   76.83    0.03    0.00    0.79
 2000 001   134     1     1     0.3   20.3   16579   15.8    4.4   1.6   1.7   2.5   1.3   0.8   0.6   0.6   0.5   0.0   0.0   0.0   0.1   0.3   0.2   0.2  0.52  0.26  0.11  0.00  0.00   67.49   77.07    0.03    0.00    0.80
 2000 002   135     1     1     0.3   20.5   16579   16.1    4.4   1.7   1.7   2.6   1.3   0.8   0.6   0.6   0.5   0.0   0.0   0.0   0.1   0.3   0.2   0.2  0.52  0.26  0.11  0.00  0.00   67.71   77.31    0.03    0.00    0.80
 2000 003   136     1     1     0.3   20.7   16579   16.3    4.4   1.7   1.8   2.6   1.3   0.8   0.6   0.6   0.5   0.0   0.0   0.0   0.1   0.3   0.2   0.2  0.52  0.26  0.11  0.00  0.00   67.94   77.55    0.03    0.00    0.80
 2000 004   137     1     1     0.3   20.9   16579   16.5    4.4   1.8   1.8   2.6   1.4   0.9   0.6   0.6   0.5   0.0   0.0   0.0   0.1   0.3   0.2   0.2  0.52  0.25  0.11  0.00  0.00   68.17   77.80    0.03    0.00    0.80
 2000 005   138     1     1     0.3   21.2   16578   16.8    4.4   1.8   1.8   2.7   1.4   0.9   0.6   0.6   0.5   0.0   0.0   0.0   0.1   0.3   0.2   0.2  0.52  0.25  0.11  0.00  0.00   68.41   78.07    0.03    0.00    0.80
 2000 006   139     1     1     0.3   21.4   16578   17.1    4.3   1.8   1.9   2.7   1.4   0.9   0.6   0.6   0.5   0.0   0.0   0.0   0.1   0.3   0.2   0.2  0.52  0.25  0.11  0.00  0.00   68.65   78.33    0.03    0.00    0.80
 2000 007   140     1     1     0.3   21.7   16578   17.3    4.3   1.9   1.9   2.8   1.4   0.9   0.6   0.6   0.5   0.0   0.0   0.0   0.1   0.3   0.2   0.2  0.52  0.24  0.11  0.00  0.00   68.90   78.61    0.03    0.00    0.80
 2000 008   141     1     1     0.3   21.9   16578   17.6    4.3   1.9   2.0   2.8   1.4   0.9   0.6   0.6   0.5   0.0   0.0   0.0   0.1   0.3   0.2   0.2  0.52  0.24  0.10  0.00  0.00   69.15   78.89    0.03    0.00    0.80
 2000 009   142     1     1     0.3   22.2   16577   17.9    4.2   2.0   2.0   2.8   1.5   0.9   0.6   0.6   0.5   0.0   0.0   0.0   0.1   0.3   0.2   0.2  0.53  0.24  0.10  0.00  0.00   69.41   79.18    0.03    0.00    0.80
 2000 010   143     1     1     0.3   22.4   16577   18.2    4.2   2.1   2.1   2.9   1.5   1.0   0.6   0.6   0.6   0.0   0.0   0.0   0.1   0.3   0.2   0.2  0.53  0.23  0.10  0.00  0.00   69.69   79.49    0.03    0.00    0.80
 2000 011   144     1     1     0.3   22.7   16577   18.5    4.2   2.1   2.1   2.9   1.5   1.0   0.6   0.6   0.6   0.0   0.0   0.0   0.1   0.2   0.2   0.2  0.53  0.23  0.10  0.00  0.00   69.97   79.81    0.03    0.00    0.80
 2000 012   145     1     1     0.3   23.0   16577   18.8    4.2   2.2   2.2   3.0   1.5   1.0   0.6   0.6   0.6   0.0   0.0   0.0   0.1   0.2   0.2   0.2  0.53  0.23  0.10  0.00  0.00   70.23   80.10    0.03    0.00    0.80
 2000 013   146     1     1     0.3   23.3   16576   19.1    4.1   2.3   2.2   3.0   1.5   1.0   0.6   0.7   0.6   0.0   0.0   0.0   0.1   0.2   0.2   0.2  0.53  0.22  0.10  0.00  0.00   70.50   80.40    0.03    0.00    0.80
 2000 014   147     1     1     0.3   23.6   16576   19.4    4.2   1.2   2.8   3.1   1.6   1.0   0.6   0.7   0.6   0.0   0.0   0.2   0.1   0.2   0.2   0.2  0.53  0.22  0.10  0.00  0.00   70.85   80.67    0.03    0.00    0.80
 2000 015   148     1     1     0.3   24.3   16576   19.9    4.4   1.6   2.9   3.1   1.6   1.1   0.7   0.7   0.6   0.0   0.0   0.1   0.3   0.2   0.2   0.2  0.53  0.22  0.10  0.00  0.00   71.50   81.15    0.03    0.00    0.80
 2000 016   149     1     1     0.3   23.4   16575   18.8    4.5   1.3   1.9   3.2   1.6   1.1   0.7   0.7   0.6   0.0   0.0   0.2   0.4   0.2   0.2   0.2  0.53  0.21  0.09  0.00  0.00   72.10   81.58    0.03    0.00    0.81
 2000 017   150     1     1     0.3   23.0   16575   18.4    4.6   1.4   1.3   3.2   1.6   1.1   0.7   0.7   0.6   0.0   0.0   0.1   0.5   0.3   0.2   0.2  0.53  0.21  0.09  0.00  0.00   72.72   82.16    0.03    0.00    0.81
 2000 018   151     1     1     0.3   23.6   16574   18.9    4.6   1.6   1.5   3.3   1.6   1.1   0.7   0.7   0.6   0.0   0.0   0.2   0.5   0.3   0.2   0.2  0.53  0.21  0.09  0.00  0.00   73.30   82.66    0.03    0.00    0.82
 2000 019   152     1     1     0.3   23.6   16574   19.0    4.6   1.8   1.3   3.3   1.6   1.1   0.7   0.7   0.6   0.0   0.0   0.1   0.5   0.3   0.2   0.2  0.53  0.21  0.09  0.00  0.00   73.81   83.20    0.03    0.00    0.82
 2000 020   153     1     1     0.3   23.8   16573   19.3    4.6   1.9   1.3   3.4   1.7   1.1   0.7   0.7   0.6   0.0   0.0   0.1   0.5   0.3   0.2   0.2  0.53  0.20  0.09  0.00  0.00   74.32   83.69    0.03    0.00    0.82
 2000 021   154     1     1     0.3   24.3   16573   19.8    4.5   2.1   1.5   3.4   1.7   1.1   0.7   0.7   0.6   0.0   0.0   0.1   0.5   0.3   0.2   0.2  0.53  0.20  0.09  0.00  0.00   74.80   84.23    0.03    0.00    0.82
 2000 022   155     1     1     0.3   24.8   16573   20.3    4.5   2.2   1.7   3.5   1.7   1.1   0.7   0.7   0.6   0.0   0.0   0.1   0.4   0.3   0.2   0.2  0.53  0.20  0.09  0.00  0.00   75.27   84.72    0.03    0.00    0.83
 2000 023   156     1     1     0.3   25.2   16572   20.8    4.5   2.4   1.9   3.5   1.7   1.2   0.7   0.7   0.6   0.0   0.0   0.1   0.4   0.3   0.2   0.2  0.53  0.20  0.09  0.00  0.00   75.73   85.21    0.03    0.00    0.83
 2000 024   157     1     1     0.3   25.7   16572   21.2    4.5   2.5   2.1   3.6   1.7   1.2   0.7   0.7   0.6   0.0   0.0   0.1   0.4   0.3   0.2   0.2  0.53  0.20  0.09  0.00  0.00   76.16   85.65    0.03    0.00    0.83

*DSSAT Cropping System Model Ver. 4.0.2.000               Aug 23, 2016; 20:22:27

*RUN   2        : UYSB                    
 MODEL          : CRGRO040 - Soybean         
 EXPERIMENT     : UYSB0397 SB    late to create DSS                             
 TREATMENT  1   : UYSB                    

@YEAR DOY   DAS  NAPC  NI#M    NLCC   NIAD    NOAD   NITD   NHTD  NI1D  NI2D  NI3D  NI4D  NI5D  NI6D  NI7D  NI8D  NI9D  NI10  NH1D  NH2D  NH3D  NH4D  NH5D  NH6D  NH7D  NH8D  NH9D  NH10    NMNC    NITC    NDNC    NIMC    AMLC
 2000 232     0     0     0     0.0   54.8   16645   32.2   22.7   6.2   5.3   5.1   4.7   2.6   0.0   0.1   0.1   0.0   0.0   0.4   1.3   1.5   1.4   1.4  1.50  1.46  1.45  0.00  0.00    0.59    1.89    0.00    0.00    0.00
 2000 233     1     0     0     0.0   55.4   16645   33.5   21.9   6.6   5.6   5.3   4.8   2.7   0.0   0.1   0.1   0.0   0.0   0.2   1.1   1.4   1.4   1.4  1.51  1.43  1.41  0.00  0.00    1.20    3.26    0.00    0.00    0.00
 2000 234     2     0     0     0.0   56.0   16644   34.7   21.3   6.5   5.9   5.4   4.9   2.7   0.1   0.1   0.2   0.0   0.0   0.1   1.0   1.4   1.3   1.3  1.51  1.40  1.36  0.00  0.00    1.81    4.45    0.00    0.00    0.00
 2000 235     3     0     0     0.0   56.7   16644   35.9   20.8   6.5   6.2   5.6   5.0   2.8   0.1   0.2   0.2   0.0   0.0   0.1   0.9   1.4   1.3   1.3  1.51  1.36  1.32  0.00  0.00    2.43    5.59    0.00    0.00    0.00
 2000 236     4     1     1     0.0   58.2   16643   37.5   20.7   7.2   6.5   5.7   5.1   2.9   0.1   0.2   0.3   0.0   0.0   0.9   0.8   1.4   1.2   1.3  1.52  1.33  1.28  0.00  0.00    3.07    6.72    0.00    0.00    0.09
 2000 237     5     1     1     0.0   58.8   16642   39.0   19.8   4.9   7.9   6.1   5.2   2.9   0.1   0.3   0.3   0.0   0.0   0.0   0.7   1.3   1.2   1.2  1.52  1.30  1.24  0.00  0.00    3.72    8.22    0.00    0.00    0.15
 2000 238     6     1     1     0.0   59.4   16642   39.8   19.6   5.0   7.6   6.4   5.2   3.0   0.1   0.3   0.3   0.0   0.0   0.1   0.8   1.3   1.1   1.2  1.52  1.27  1.20  0.00  0.00    4.33    9.01    0.00    0.00    0.16
 2000 239     7     1     1     0.0   60.0   16641   40.6   19.4   5.0   7.5   6.6   5.3   3.1   0.2   0.4   0.4   0.0   0.0   0.1   0.9   1.3   1.1   1.1  1.52  1.24  1.17  0.00  0.00    4.93    9.83    0.00    0.00    0.18
 2000 240     8     1     1     0.0   60.5   16641   41.5   19.0   5.1   7.6   6.8   5.4   3.1   0.2   0.4   0.4   0.0   0.0   0.1   0.8   1.3   1.1   1.1  1.53  1.21  1.13  0.00  0.00    5.50   10.75    0.00    0.00    0.20
 2000 241     9     1     1     0.0   61.0   16640   42.4   18.7   5.2   7.7   6.9   5.5   3.2   0.2   0.4   0.5   0.0   0.0   0.1   0.8   1.3   1.0   1.1  1.53  1.19  1.10  0.00  0.00    6.03   11.59    0.00    0.00    0.22
 2000 242    10     1     1     0.0   61.5   16640   43.1   18.4   5.2   7.8   7.1   5.5   3.2   0.2   0.5   0.5   0.0   0.0   0.1   0.7   1.3   1.0   1.0  1.53  1.16  1.07  0.00  0.00    6.52   12.36    0.00    0.00    0.24
 2000 243    11     1     1     0.0   62.0   16639   43.9   18.1   5.3   7.9   7.2   5.6   3.3   0.2   0.5   0.5   0.0   0.0   0.1   0.7   1.3   1.0   1.0  1.53  1.14  1.04  0.00  0.00    6.99   13.08    0.00    0.00    0.26
 2000 244    12     1     1     0.0   62.4   16639   44.6   17.8   5.3   7.9   7.3   5.7   3.3   0.2   0.5   0.6   0.0   0.0   0.1   0.7   1.2   1.0   1.0  1.54  1.11  1.01  0.00  0.00    7.47   13.81    0.00    0.00    0.27
 2000 245    13     1     1     0.0   62.9   16638   45.3   17.6   5.3   8.0   7.4   5.7   3.4   0.3   0.6   0.6   0.0   0.0   0.1   0.6   1.2   0.9   1.0  1.54  1.09  0.98  0.00  0.00    7.95   14.51    0.00    0.00    0.29
 2000 246    14     1     1     0.0   63.3   16638   46.0   17.4   5.4   8.1   7.5   5.8   3.4   0.3   0.6   0.6   0.0   0.0   0.1   0.6   1.2   0.9   1.0  1.54  1.07  0.95  0.00  0.00    8.41   15.18    0.00    0.00    0.29
 2000 247    15     1     1     0.0   63.7   16637   46.6   17.1   5.4   8.2   7.6   5.8   3.4   0.3   0.6   0.7   0.0   0.0   0.1   0.6   1.2   0.9   0.9  1.54  1.05  0.92  0.00  0.00    8.80   15.86    0.00    0.00    0.29
 2000 248    16     1     1     0.0   64.1   16637   47.3   16.8   5.5   8.2   7.7   5.9   3.5   0.3   0.7   0.7   0.0   0.0   0.1   0.5   1.2   0.9   0.9  1.55  1.03  0.90  0.00  0.00    9.18   16.52    0.00    0.00    0.29
 2000 249    17     1     1     0.0   64.5   16636   47.9   16.6   5.6   8.3   7.7   5.9   3.5   0.3   0.7   0.7   0.0   0.0   0.1   0.5   1.1   0.8   0.9  1.55  1.01  0.87  0.00  0.00    9.57   17.16    0.00    0.00    0.30
 2000 250    18     1     1     0.0   64.8   16636   48.5   16.3   5.6   8.4   7.8   6.0   3.6   0.3   0.7   0.7   0.0   0.0   0.1   0.5   1.1   0.8   0.9  1.55  0.99  0.85  0.00  0.00    9.97   17.80    0.00    0.00    0.30
 2000 251    19     1     1     0.0   65.2   16636   49.2   16.1   5.7   8.5   7.9   6.0   3.6   0.4   0.8   0.8   0.0   0.0   0.1   0.5   1.1   0.8   0.8  1.55  0.97  0.82  0.00  0.00   10.39   18.46    0.00    0.00    0.30
 2000 252    20     1     1     0.0   65.7   16635   49.8   15.8   5.8   8.6   8.0   6.1   3.6   0.4   0.8   0.8   0.0   0.0   0.1   0.5   1.1   0.7   0.8  1.55  0.95  0.80  0.00  0.00   10.85   19.16    0.00    0.00    0.30
 2000 253    21     1     1     0.0   66.1   16635   50.5   15.6   5.3   8.9   8.1   6.1   3.7   0.4   0.8   0.8   0.0   0.0   0.1   0.4   1.1   0.7   0.8  1.56  0.93  0.78  0.00  0.00   11.35   19.89    0.00    0.00    0.30
 2000 254    22     1     1     0.0   66.6   16634   51.2   15.4   1.7   6.3   9.4   7.8   3.7   0.4   0.8   0.9   0.0   0.0   0.2   0.4   1.0   0.7   0.8  1.56  0.92  0.76  0.00  0.00   11.88   20.58    0.00    0.00    0.31
 2000 255    23     1     1     0.0   67.2   16634   51.7   15.6   1.9   6.1   9.1   7.7   4.2   0.4   0.9   0.9   0.0   0.0   0.1   0.5   1.1   0.7   0.8  1.56  0.90  0.73  0.00  0.00   12.49   21.04    0.00    0.00    0.31
 2000 256    24     1     1     0.0   67.8   16633   52.2   15.7   2.1   6.1   9.0   7.8   4.3   0.4   0.9   0.9   0.0   0.0   0.1   0.6   1.2   0.7   0.8  1.56  0.88  0.71  0.00  0.00   13.15   21.57    0.00    0.00    0.33
 2000 257    25     1     1     0.0   68.4   16632   52.7   15.7   1.4   5.2   8.8   8.1   5.0   0.5   0.9   0.9   0.0   0.0   0.1   0.6   1.3   0.7   0.7  1.57  0.86  0.69  0.00  0.00   13.76   22.16    0.00    0.00    0.34
 2000 258    26     1     1     0.0   68.9   16632   53.0   15.9   1.0   4.5   8.3   7.8   5.5   0.9   1.0   1.0   0.0   0.0   0.2   0.7   1.4   0.7   0.8  1.57  0.85  0.68  0.00  0.00   14.28   22.42    0.00    0.00    0.34
 2000 259    27     1     1     0.3   69.0   16631   52.7   16.3   1.0   4.5   8.1   7.6   5.5   1.0   1.0   1.0   0.0   0.0   0.2   0.7   1.4   0.8   0.8  1.58  0.85  0.67  0.00  0.00   14.73   22.54    0.11    0.00    0.34
 2000 260    28     1     1     0.5   69.1   16631   52.6   16.5   1.2   4.4   8.0   7.4   5.5   1.1   1.0   1.0   0.0   0.0   0.2   0.8   1.5   0.8   0.8  1.60  0.85  0.67  0.00  0.00   15.15   22.74    0.17    0.00    0.35
 2000 261    29     1     1     0.6   69.4   16630   52.8   16.6   1.3   4.5   7.9   7.3   5.4   1.2   1.0   1.0   0.0   0.0   0.1   0.7   1.5   0.8   0.8  1.61  0.86  0.66  0.00  0.00   15.55   23.01    0.20    0.00    0.35
 2000 262    30     1     1     0.6   69.7   16630   53.0   16.7   1.0   4.0   7.8   7.5   5.7   1.3   1.0   1.0   0.0   0.0   0.1   0.7   1.6   0.8   0.8  1.62  0.86  0.66  0.00  0.00   15.97   23.28    0.23    0.00    0.36
 2000 263    31     1     1     1.1   69.5   16630   52.5   17.1   0.5   2.7   6.4   6.6   5.9   2.1   1.3   1.1   0.0   0.0   0.2   0.7   1.6   0.8   0.8  1.64  0.86  0.66  0.00  0.00   16.42   23.42    0.40    0.00    0.36
 2000 264    32     1     1     1.3   69.5   16629   52.2   17.4   0.5   2.6   6.1   6.5   5.9   2.2   1.4   1.1   0.0   0.0   0.1   0.8   1.7   0.8   0.9  1.65  0.87  0.66  0.00  0.00   16.91   23.58    0.63    0.00    0.36
 2000 265    33     1     1     1.8   69.3   16629   51.6   17.7   0.6   2.5   5.9   6.2   5.8   2.3   1.4   1.1   0.0   0.0   0.1   0.9   1.8   0.9   0.9  1.67  0.88  0.66  0.00  0.00   17.44   23.75    0.87    0.00    0.37
 2000 266    34     1     1     2.1   69.4   16628   51.3   18.0   0.7   2.5   5.8   6.1   5.7   2.4   1.5   1.1   0.0   0.0   0.1   0.9   1.8   0.9   0.9  1.68  0.88  0.66  0.00  0.00   17.99   23.96    1.01    0.00    0.37
 2000 267    35     1     1     2.1   69.7   16627   51.5   18.2   0.9   2.7   5.8   6.0   5.7   2.4   1.5   1.2   0.0   0.0   0.1   0.8   1.9   0.9   0.9  1.70  0.88  0.65  0.00  0.00   18.54   24.36    1.09    0.00    0.37
 2000 268    36     1     1     2.3   70.0   16627   51.7   18.3   1.0   2.8   5.8   6.0   5.7   2.4   1.5   1.2   0.0   0.0   0.1   0.8   1.9   0.9   0.9  1.71  0.89  0.65  0.00  0.00   19.11   24.77    1.13    0.00    0.37
 2000 269    37     1     1     2.4   70.4   16626   52.1   18.3   1.2   2.9   6.0   6.0   5.6   2.4   1.5   1.2   0.0   0.0   0.1   0.7   1.9   1.0   1.0  1.72  0.89  0.65  0.00  0.00   19.63   25.33    1.16    0.00    0.38
 2000 270    38     1     1     2.4   70.8   16626   52.6   18.2   1.3   3.0   6.1   6.0   5.6   2.4   1.5   1.2   0.0   0.0   0.1   0.7   1.8   1.0   1.0  1.74  0.89  0.64  0.00  0.00   20.12   25.84    1.17    0.00    0.38
 2000 271    39     1     1     2.4   71.2   16625   53.0   18.2   1.5   3.1   6.2   6.0   5.6   2.4   1.5   1.2   0.0   0.0   0.1   0.7   1.8   1.0   1.0  1.75  0.89  0.64  0.00  0.00   20.60   26.33    1.18    0.00    0.38
 2000 272    40     1     1     2.4   71.6   16625   53.4   18.2   1.6   3.2   6.3   6.0   5.6   2.4   1.5   1.2   0.0   0.0   0.1   0.6   1.7   1.0   1.0  1.76  0.90  0.64  0.00  0.00   21.09   26.83    1.19    0.00    0.39
 2000 273    41     1     1     2.4   72.0   16624   53.9   18.1   1.8   3.3   6.4   6.1   5.6   2.4   1.5   1.2   0.0   0.0   0.1   0.6   1.7   1.0   1.0  1.77  0.90  0.63  0.00  0.00   21.62   27.42    1.19    0.00    0.39
 2000 274    42     1     1     2.4   72.5   16624   54.5   18.0   1.4   3.4   6.6   6.1   5.7   2.4   1.5   1.2   0.0   0.0   0.1   0.6   1.6   0.9   1.0  1.79  0.90  0.63  0.00  0.00   22.21   28.07    1.20    0.00    0.39
 2000 275    43     1     1     2.4   73.0   16623   54.9   18.0   1.5   3.4   6.7   6.2   5.7   2.4   1.6   1.2   0.0   0.0   0.1   0.7   1.5   0.9   1.0  1.80  0.90  0.63  0.00  0.00   22.85   28.65    1.21    0.00    0.39
 2000 276    44     1     1     2.5   73.5   16622   55.5   18.0   0.9   2.8   6.2   6.1   6.0   2.8   1.7   1.2   0.0   0.0   0.1   0.6   1.5   0.9   1.0  1.81  0.90  0.62  0.00  0.00   23.54   29.35    1.22    0.00    0.40
 2000 277    45     1     1     2.5   73.9   16622   55.4   18.5   0.7   2.5   5.9   6.0   6.0   3.0   1.8   1.3   0.0   0.0   0.2   0.7   1.6   1.0   1.1  1.83  0.91  0.62  0.00  0.00   24.21   29.51    1.31    0.00    0.40
 2000 278    46     1     1     3.1   73.7   16621   54.9   18.8   0.9   2.5   5.7   5.8   5.8   3.0   1.9   1.4   0.0   0.0   0.1   0.8   1.7   1.0   1.1  1.85  0.91  0.62  0.00  0.00   24.82   29.77    1.42    0.00    0.40
 2000 279    47     1     1     3.5   73.8   16621   54.6   19.1   1.0   2.5   5.7   5.6   5.7   3.0   1.9   1.4   0.0   0.0   0.1   0.9   1.7   1.0   1.1  1.86  0.92  0.62  0.00  0.00   25.43   30.02    1.48    0.00    0.41
 2000 280    48     1     1     3.7   74.0   16620   54.7   19.2   1.2   2.6   5.7   5.6   5.6   3.0   2.0   1.4   0.0   0.0   0.1   0.8   1.8   1.0   1.1  1.87  0.92  0.61  0.00  0.00   26.00   30.44    1.54    0.00    0.41
 2000 281    49     1     1     3.8   74.2   16619   55.0   19.2   1.4   2.7   5.8   5.6   5.6   3.0   2.0   1.4   0.0   0.0   0.1   0.7   1.7   1.0   1.1  1.88  0.92  0.61  0.00  0.00   26.54   31.01    1.57    0.00    0.41
 2000 282    50     1     1     3.8   74.5   16619   55.4   19.1   1.5   2.8   5.9   5.5   5.6   3.0   2.0   1.4   0.0   0.0   0.1   0.7   1.7   1.1   1.1  1.89  0.92  0.61  0.00  0.00   27.10   31.59    1.59    0.00    0.42
 2000 283    51     1     1     3.8   74.8   16618   55.8   19.0   1.0   2.7   5.9   5.7   5.7   3.0   2.0   1.4   0.0   0.0   0.1   0.6   1.6   1.1   1.2  1.90  0.92  0.60  0.00  0.00   27.66   32.16    1.60    0.00    0.42
 2000 284    52     1     1     4.1   75.0   16618   55.6   19.4   1.1   2.7   5.8   5.5   5.6   3.1   2.1   1.5   0.0   0.0   0.2   0.7   1.7   1.1   1.2  1.92  0.92  0.60  0.00  0.00   28.22   32.34    1.65    0.00    0.42
 2000 285    53     1     1     4.2   75.2   16617   55.6   19.6   1.2   2.6   5.7   5.5   5.6   3.1   2.1   1.5   0.0   0.0   0.1   0.8   1.7   1.1   1.2  1.92  0.92  0.60  0.00  0.00   28.78   32.63    1.68    0.00    0.42
 2000 286    54     1     1     4.3   75.4   16617   55.7   19.7   1.4   2.7   5.7   5.4   5.6   3.2   2.1   1.5   0.0   0.0   0.1   0.7   1.8   1.1   1.2  1.93  0.92  0.59  0.00  0.00   29.35   33.06    1.70    0.00    0.43
 2000 287    55     1     1     4.3   75.7   16616   56.1   19.5   1.6   2.8   5.8   5.4   5.6   3.2   2.1   1.5   0.0   0.0   0.1   0.7   1.7   1.1   1.2  1.94  0.93  0.59  0.00  0.00   29.95   33.70    1.71    0.00    0.43
 2000 288    56     1     1     4.3   75.9   16615   56.5   19.4   1.8   2.9   5.9   5.4   5.6   3.2   2.1   1.5   0.0   0.0   0.1   0.6   1.6   1.1   1.2  1.95  0.93  0.59  0.00  0.00   30.55   34.32    1.72    0.00    0.43
 2000 289    57     1     1     4.3   76.4   16615   57.0   19.4   2.0   3.0   6.0   5.4   5.6   3.2   2.1   1.5   0.0   0.0   0.1   0.6   1.6   1.1   1.2  1.96  0.93  0.58  0.00  0.00   31.16   34.94    1.73    0.00    0.44
 2000 290    58     1     1     4.3   76.8   16614   57.6   19.2   1.8   3.3   6.1   5.5   5.6   3.2   2.1   1.5   0.0   0.0   0.1   0.6   1.5   1.1   1.2  1.97  0.93  0.58  0.00  0.00   31.77   35.64    1.73    0.00    0.44
 2000 291    59     1     1     4.3   77.2   16614   57.9   19.2   1.9   3.3   6.2   5.5   5.6   3.2   2.1   1.5   0.0   0.0   0.1   0.7   1.5   1.1   1.2  1.98  0.93  0.58  0.00  0.00   32.39   36.21    1.74    0.00    0.44
 2000 292    60     1     1     4.3   77.5   16613   58.4   19.1   2.0   3.4   6.3   5.6   5.6   3.2   2.1   1.6   0.0   0.0   0.1   0.6   1.4   1.0   1.2  1.99  0.93  0.57  0.00  0.00   32.98   36.88    1.74    0.00    0.45
 2000 293    61     1     1     4.3   77.8   16612   58.9   19.0   1.5   3.4   6.5   5.7   5.6   3.2   2.2   1.6   0.0   0.0   0.1   0.6   1.4   1.0   1.2  2.00  0.93  0.57  0.00  0.00   33.57   37.53    1.75    0.00    0.45
 2000 294    62     1     1     4.4   78.0   16612   58.8   19.2   1.6   3.3   6.4   5.7   5.6   3.2   2.2   1.6   0.0   0.0   0.1   0.7   1.5   1.0   1.2  2.01  0.93  0.57  0.00  0.00   34.17   37.78    1.76    0.00    0.45
 2000 295    63     1     1     4.4   78.3   16611   58.8   19.5   1.8   3.3   6.3   5.7   5.6   3.2   2.2   1.6   0.0   0.0   0.1   0.7   1.5   1.0   1.2  2.01  0.93  0.56  0.00  0.00   34.79   38.07    1.76    0.00    0.45
 2000 296    64     1     1     4.5   78.1   16611   58.6   19.5   0.9   2.6   5.5   5.5   5.8   3.6   2.4   1.7   0.0   0.0   0.1   0.7   1.6   1.0   1.2  2.02  0.93  0.56  0.00  0.00   35.44   38.55    1.77    0.00    0.46
 2000 297    65     1     1     4.6   78.1   16610   58.3   19.9   0.9   2.5   5.4   5.4   5.7   3.6   2.5   1.7   0.0   0.0   0.2   0.8   1.6   1.1   1.3  2.03  0.93  0.56  0.00  0.00   36.06   38.71    1.89    0.00    0.46
 2000 298    66     1     1     5.3   77.5   16609   57.4   20.1   1.1   2.5   5.2   5.2   5.6   3.6   2.5   1.8   0.0   0.0   0.1   0.8   1.7   1.1   1.3  2.04  0.93  0.55  0.00  0.00   36.68   38.98    2.09    0.00    0.46
 2000 299    67     1     1     6.9   76.0   16609   55.8   20.2   0.5   1.8   4.1   4.5   5.2   3.9   3.0   2.2   0.0   0.0   0.1   0.7   1.8   1.1   1.3  2.05  0.94  0.55  0.00  0.00   37.31   39.43    2.21    0.00    0.47
 2000 300    68     1     1     7.8   74.7   16608   54.3   20.4   0.4   1.4   3.6   4.2   5.0   4.0   3.1   2.3   0.0   0.0   0.1   0.8   1.8   1.1   1.3  2.05  0.94  0.55  0.00  0.00   37.90   39.63    2.44    0.00    0.47
 2000 301    69     1     1     8.9   73.3   16608   52.8   20.5   0.5   1.4   3.4   4.0   4.8   3.9   3.1   2.3   0.0   0.0   0.1   0.8   1.8   1.1   1.3  2.05  0.94  0.55  0.00  0.00   38.48   39.83    2.66    0.00    0.47
 2000 302    70     1     1     9.5   71.7   16607   51.3   20.4   0.6   1.3   3.2   3.8   4.6   3.8   3.0   2.3   0.0   0.0   0.1   0.8   1.8   1.1   1.3  2.04  0.94  0.55  0.00  0.00   39.09   40.10    2.78    0.00    0.48
 2000 303    71     1     1     9.8   70.8   16606   50.6   20.1   0.8   1.4   3.1   3.8   4.5   3.7   3.0   2.3   0.0   0.0   0.1   0.7   1.8   1.1   1.3  2.04  0.93  0.55  0.00  0.00   39.71   40.56    2.84    0.00    0.48
 2000 304    72     1     1     9.9   70.0   16606   50.3   19.7   0.9   1.4   3.1   3.7   4.5   3.7   3.0   2.3   0.0   0.0   0.1   0.6   1.6   1.1   1.3  2.03  0.93  0.54  0.00  0.00   40.33   41.21    2.87    0.00    0.48
 2000 305    73     1     1     9.9   68.8   16605   49.6   19.1   1.0   1.5   3.0   3.6   4.4   3.6   2.9   2.3   0.0   0.0   0.1   0.5   1.4   1.1   1.3  2.00  0.92  0.54  0.00  0.00   40.97   41.86    2.88    0.00    0.48
 2000 306    74     1     1     9.9   67.3   16604   48.9   18.4   0.9   1.6   3.0   3.6   4.3   3.5   2.9   2.3   0.0   0.0   0.1   0.5   1.3   1.0   1.2  1.97  0.90  0.53  0.00  0.00   41.62   42.58    2.88    0.00    0.49
 2000 307    75     1     1     9.9   67.0   16604   48.7   18.3   0.8   1.6   3.0   3.6   4.2   3.5   2.9   2.2   0.0   0.0   0.2   0.6   1.2   1.0   1.2  1.96  0.90  0.52  0.00  0.00   42.27   43.06    2.89    0.00    0.49
 2000 308    76     1     1     9.9   65.7   16603   48.0   17.7   1.1   1.5   2.9   3.6   4.2   3.4   2.9   2.2   0.0   0.0   0.1   0.7   1.1   0.9   1.1  1.93  0.89  0.52  0.00  0.00   42.93   43.76    2.89    0.00    0.49
 2000 309    77     1     1     9.9   64.0   16602   47.1   16.8   1.2   1.5   2.7   3.5   4.1   3.4   2.8   2.2   0.0   0.0   0.1   0.5   1.0   0.8   1.1  1.88  0.87  0.51  0.00  0.00   43.61   44.62    2.89    0.00    0.50
 2000 310    78     1     1     9.9   62.7   16602   46.5   16.2   1.3   1.5   2.6   3.5   4.1   3.3   2.8   2.2   0.0   0.0   0.1   0.5   0.9   0.8   1.0  1.83  0.86  0.50  0.00  0.00   44.26   45.36    2.89    0.00    0.50
 2000 311    79     1     1     9.9   60.5   16601   45.1   15.4   1.4   1.5   2.3   3.3   4.0   3.2   2.7   2.2   0.0   0.0   0.1   0.5   0.8   0.7   0.9  1.76  0.82  0.50  0.00  0.00   44.90   46.09    2.89    0.00    0.50
 2000 312    80     1     1     9.9   58.0   16600   43.4   14.6   1.5   1.4   2.1   3.2   3.8   3.1   2.7   2.2   0.0   0.0   0.1   0.5   0.7   0.7   0.9  1.68  0.78  0.50  0.00  0.00   45.55   46.79    2.89    0.00    0.51
 2000 313    81     1     1     9.9   56.6   16600   42.5   14.0   1.5   1.4   2.0   3.1   3.7   3.0   2.6   2.1   0.0   0.0   0.1   0.5   0.7   0.6   0.8  1.63  0.74  0.49  0.00  0.00   46.21   47.48    2.89    0.00    0.51
 2000 314    82     1     1     9.9   54.4   16599   41.1   13.3   1.6   1.4   1.8   3.0   3.6   2.9   2.6   2.1   0.0   0.0   0.1   0.5   0.6   0.6   0.7  1.56  0.71  0.48  0.00  0.00   46.86   48.15    2.89    0.00    0.51
 2000 315    83     1     1     9.9   53.4   16599   40.4   13.0   1.7   1.4   1.7   2.9   3.5   2.9   2.5   2.1   0.0   0.0   0.1   0.5   0.6   0.6   0.7  1.52  0.68  0.46  0.00  0.00   47.51   48.78    2.89    0.00    0.51
 2000 316    84     1     1     9.9   50.3   16598   38.2   12.1   1.0   1.5   1.6   2.7   3.3   2.7   2.4   2.1   0.0   0.0   0.1   0.5   0.6   0.5   0.6  1.42  0.64  0.45  0.00  0.00   48.14   49.40    2.89    0.00    0.52
 2000 317    85     1     1     9.9   47.1   16597   35.5   11.5   0.9   1.4   1.2   2.6   3.1   2.5   2.3   2.0   0.0   0.0   0.1   0.6   0.6   0.5   0.6  1.33  0.59  0.44  0.00  0.00   48.80   49.87    2.89    0.00    0.52
 2000 318    86     1     1     9.9   43.7   16597   32.9   10.8   0.9   1.1   0.9   2.4   2.9   2.4   2.2   2.0   0.0   0.0   0.1   0.5   0.6   0.5   0.5  1.24  0.55  0.43  0.00  0.00   49.47   50.48    2.89    0.00    0.52
 2000 319    87     1     1     9.9   40.9   16596   30.5   10.3   0.9   0.9   0.7   2.2   2.6   2.2   2.1   1.9   0.0   0.0   0.1   0.5   0.6   0.5   0.5  1.15  0.51  0.42  0.00  0.00   50.13   51.04    2.89    0.00    0.52
 2000 320    88     1     1     9.9   38.7   16595   28.8   10.0   0.9   0.8   0.5   2.0   2.5   2.1   2.0   1.9   0.0   0.0   0.1   0.5   0.6   0.5   0.5  1.08  0.50  0.41  0.00  0.00   50.76   51.57    2.89    0.00    0.53
 2000 321    89     1     1     9.9   36.7   16595   27.0    9.7   1.0   0.7   0.4   1.9   2.3   2.0   1.9   1.9   0.0   0.0   0.1   0.5   0.6   0.5   0.5  1.01  0.49  0.40  0.00  0.00   51.36   52.06    2.89    0.00    0.53
 2000 322    90     1     1     9.9   33.1   16594   24.0    9.1   0.9   0.6   0.5   1.6   2.0   1.7   1.7   1.8   0.0   0.0   0.1   0.5   0.6   0.5   0.5  0.87  0.49  0.39  0.00  0.00   51.94   52.53    2.89    0.00    0.53
 2000 323    91     1     1     9.9   29.6   16594   21.1    8.5   0.9   0.4   0.5   1.3   1.6   1.5   1.6   1.7   0.0   0.0   0.1   0.5   0.6   0.5   0.5  0.75  0.48  0.39  0.00  0.00   52.51   53.00    2.89    0.00    0.54
 2000 324    92     1     1     9.9   26.3   16593   18.3    8.0   0.9   0.6   0.3   1.1   1.4   1.2   1.4   1.6   0.0   0.0   0.1   0.5   0.6   0.5   0.5  0.63  0.48  0.38  0.00  0.00   53.10   53.48    2.89    0.00    0.54
 2000 325    93     1     1     9.9   23.6   16592   16.0    7.6   0.8   0.5   0.4   0.9   1.1   1.0   1.2   1.5   0.0   0.0   0.1   0.5   0.6   0.5   0.5  0.54  0.48  0.37  0.00  0.00   53.74   54.02    2.89    0.00    0.54
 2000 326    94     1     1     9.9   21.7   16592   14.3    7.5   0.8   0.6   0.5   0.7   1.0   0.8   1.0   1.3   0.0   0.0   0.1   0.4   0.5   0.5   0.5  0.51  0.47  0.36  0.00  0.00   54.40   54.57    2.89    0.00    0.54
 2000 327    95     1     1     9.9   20.1   16591   12.7    7.4   0.8   0.6   0.5   0.6   0.8   0.7   0.9   1.2   0.0   0.0   0.1   0.4   0.5   0.5   0.5  0.52  0.47  0.35  0.00  0.00   55.04   55.12    2.89    0.00    0.55
 2000 328    96     1     1     9.9   18.4   16590   11.0    7.3   0.5   0.7   0.4   0.5   0.7   0.6   0.8   1.2   0.0   0.0   0.1   0.4   0.5   0.5   0.5  0.52  0.46  0.35  0.00  0.00   55.68   55.68    2.89    0.00    0.55
 2000 329    97     1     1     9.9   16.8   16590    9.3    7.5   0.4   0.3   0.5   0.5   0.6   0.5   0.7   1.1   0.0   0.0   0.1   0.5   0.5   0.5   0.5  0.52  0.46  0.34  0.00  0.00   56.40   56.12    2.89    0.00    0.55
 2000 330    98     1     1     9.9   16.6   16589    9.2    7.4   0.5   0.4   0.6   0.5   0.5   0.5   0.6   1.0   0.0   0.0   0.1   0.5   0.5   0.5   0.5  0.52  0.46  0.33  0.00  0.00   57.08   56.70    2.89    0.00    0.55
 2000 331    99     1     1     9.9   16.0   16588    8.6    7.4   0.4   0.6   0.4   0.4   0.5   0.5   0.5   0.9   0.0   0.0   0.1   0.5   0.5   0.5   0.5  0.52  0.45  0.33  0.00  0.00   57.76   57.28    2.89    0.00    0.55
 2000 332   100     1     1     9.9   15.9   16588    8.6    7.3   0.6   0.4   0.5   0.5   0.5   0.5   0.5   0.8   0.0   0.0   0.1   0.5   0.5   0.5   0.5  0.52  0.45  0.32  0.00  0.00   58.42   57.86    2.89    0.00    0.56
 2000 333   101     1     1     9.9   15.8   16587    8.5    7.3   0.6   0.5   0.5   0.5   0.5   0.5   0.4   0.7   0.0   0.0   0.1   0.5   0.5   0.5   0.5  0.52  0.45  0.31  0.00  0.00   59.06   58.40    2.89    0.00    0.56
 2000 334   102     1     1     9.9   15.1   16587    7.8    7.3   0.6   0.4   0.4   0.5   0.5   0.5   0.4   0.7   0.0   0.0   0.1   0.5   0.5   0.5   0.5  0.51  0.45  0.31  0.00  0.00   59.64   58.90    2.89    0.00    0.56
 2000 335   103     1     1     9.9   15.3   16586    8.1    7.2   0.6   0.5   0.4   0.5   0.5   0.5   0.5   0.6   0.0   0.0   0.1   0.4   0.5   0.5   0.5  0.51  0.44  0.30  0.00  0.00   60.21   59.39    2.89    0.00    0.56
 2000 336   104     1     1     9.9   15.4   16585    8.2    7.2   0.7   0.6   0.5   0.5   0.4   0.5   0.5   0.6   0.0   0.0   0.1   0.4   0.5   0.5   0.5  0.51  0.44  0.29  0.00  0.00   60.75   59.87    2.89    0.00    0.57
 2000 337   105     1     1     9.9   15.2   16585    8.2    7.1   0.7   0.5   0.5   0.5   0.5   0.5   0.5   0.5   0.0   0.0   0.1   0.4   0.5   0.5   0.5  0.51  0.44  0.29  0.00  0.00   61.25   60.33    2.89    0.00    0.57
 2000 338   106     1     1     9.9   14.9   16585    7.8    7.0   0.7   0.6   0.5   0.5   0.5   0.4   0.5   0.5   0.0   0.0   0.1   0.4   0.5   0.5   0.5  0.51  0.44  0.28  0.00  0.00   61.73   60.77    2.89    0.00    0.57
 2000 339   107     1     1     9.9   14.7   16584    7.6    7.0   0.3   0.5   0.5   0.5   0.5   0.4   0.5   0.5   0.0   0.0   0.1   0.4   0.5   0.5   0.5  0.51  0.43  0.28  0.00  0.00   62.27   61.23    2.89    0.00    0.57
 2000 340   108     1     1     9.9   14.3   16583    7.3    7.0   0.4   0.6   0.5   0.5   0.4   0.4   0.4   0.5   0.0   0.0   0.1   0.4   0.5   0.5   0.5  0.51  0.43  0.27  0.00  0.00   62.81   61.72    2.89    0.00    0.57
 2000 341   109     1     1     9.9   14.5   16583    7.6    7.0   0.6   0.4   0.5   0.5   0.5   0.4   0.5   0.5   0.0   0.0   0.1   0.4   0.5   0.5   0.5  0.51  0.43  0.27  0.00  0.00   63.34   62.21    2.89    0.00    0.58
 2000 342   110     1     1     9.9   14.8   16582    7.9    6.9   0.7   0.5   0.5   0.5   0.5   0.4   0.5   0.5   0.0   0.0   0.1   0.4   0.5   0.5   0.5  0.51  0.43  0.26  0.00  0.00   63.85   62.71    2.89    0.00    0.58
 2000 343   111     1     1     9.9   14.9   16582    8.1    6.8   0.8   0.5   0.5   0.5   0.5   0.4   0.5   0.5   0.0   0.0   0.1   0.3   0.5   0.5   0.5  0.51  0.42  0.26  0.00  0.00   64.35   63.19    2.89    0.00    0.58
 2000 344   112     1     1     9.9   14.8   16582    8.0    6.7   0.9   0.6   0.5   0.5   0.5   0.5   0.5   0.5   0.0   0.0   0.1   0.3   0.5   0.5   0.5  0.51  0.42  0.26  0.00  0.00   64.85   63.69    2.89    0.00    0.58
 2000 345   113     1     1     9.9   14.9   16581    8.2    6.7   1.0   0.6   0.5   0.5   0.5   0.5   0.5   0.5   0.0   0.0   0.0   0.3   0.5   0.5   0.5  0.51  0.42  0.25  0.00  0.00   65.34   64.20    2.89    0.00    0.59
 2000 346   114     1     1     9.9   14.9   16581    8.3    6.6   1.0   0.6   0.5   0.5   0.5   0.5   0.5   0.5   0.0   0.0   0.0   0.2   0.5   0.5   0.5  0.51  0.42  0.25  0.00  0.00   65.82   64.73    2.89    0.00    0.59
 2000 347   115     1     1     9.9   15.0   16580    8.5    6.5   1.1   0.7   0.6   0.5   0.5   0.5   0.5   0.5   0.0   0.0   0.0   0.2   0.5   0.4   0.5  0.51  0.41  0.24  0.00  0.00   66.29   65.22    2.89    0.00    0.59
 2000 348   116     1     1     9.9   15.1   16580    8.7    6.4   0.3   0.7   0.9   0.5   0.5   0.5   0.5   0.5   0.0   0.0   0.0   0.2   0.5   0.4   0.5  0.51  0.41  0.24  0.00  0.00   66.74   65.71    2.89    0.00    0.59
 2000 349   117     1     1     9.9   14.2   16579    7.4    6.8   0.3   0.3   0.3   0.5   0.5   0.5   0.5   0.5   0.0   0.0   0.2   0.4   0.6   0.4   0.5  0.51  0.40  0.23  0.00  0.00   67.52   66.08    2.89    0.00    0.59
 2000 350   118     1     1     9.9   14.6   16578    7.9    6.7   0.7   0.5   0.4   0.5   0.5   0.5   0.5   0.5   0.0   0.0   0.0   0.4   0.6   0.4   0.4  0.52  0.40  0.23  0.00  0.00   68.29   66.82    2.89    0.00    0.59
 2000 351   119     1     1     9.9   14.8   16577    8.0    6.8   0.3   0.5   0.5   0.5   0.5   0.5   0.5   0.5   0.0   0.0   0.2   0.5   0.6   0.4   0.4  0.51  0.40  0.23  0.00  0.00   69.07   67.23    2.89    0.00    0.60
 2000 352   120     1     1     9.9   15.1   16577    8.5    6.7   0.6   0.7   0.6   0.5   0.5   0.5   0.5   0.5   0.0   0.0   0.1   0.5   0.6   0.4   0.4  0.52  0.39  0.22  0.00  0.00   69.81   67.95    2.89    0.00    0.60
 2000 353   121     1     1     9.9   14.2   16576    7.6    6.6   0.4   0.4   0.3   0.5   0.5   0.5   0.5   0.5   0.0   0.0   0.1   0.5   0.6   0.4   0.4  0.51  0.39  0.22  0.00  0.00   70.52   68.50    2.89    0.00    0.60
 2000 354   122     1     1     9.9   14.5   16575    7.9    6.6   0.6   0.6   0.4   0.5   0.5   0.5   0.5   0.5   0.0   0.0   0.1   0.5   0.6   0.4   0.4  0.52  0.39  0.22  0.00  0.00   71.17   69.08    2.89    0.00    0.60
 2000 355   123     1     1     9.9   14.2   16575    7.7    6.5   0.6   0.4   0.5   0.5   0.5   0.5   0.5   0.5   0.0   0.0   0.1   0.4   0.5   0.4   0.4  0.51  0.38  0.21  0.00  0.00   71.76   69.59    2.89    0.00    0.61
 2000 356   124     1     1     9.9   14.5   16574    8.0    6.5   0.6   0.5   0.5   0.5   0.5   0.5   0.5   0.5   0.0   0.0   0.1   0.4   0.5   0.4   0.4  0.52  0.38  0.21  0.00  0.00   72.33   70.11    2.89    0.00    0.61
 2000 357   125     1     1     9.9   13.7   16574    7.3    6.4   0.4   0.4   0.3   0.5   0.5   0.5   0.5   0.5   0.0   0.0   0.1   0.4   0.5   0.4   0.4  0.51  0.38  0.21  0.00  0.00   72.90   70.61    2.89    0.00    0.61
 2000 358   126     1     1     9.9   14.2   16573    7.9    6.3   0.5   0.5   0.4   0.5   0.5   0.5   0.5   0.5   0.0   0.0   0.1   0.4   0.5   0.4   0.4  0.52  0.37  0.20  0.00  0.00   73.44   71.14    2.89    0.00    0.61
 2000 359   127     1     1     9.9   14.0   16573    7.7    6.3   0.3   0.5   0.4   0.5   0.5   0.5   0.5   0.5   0.0   0.0   0.1   0.4   0.5   0.4   0.4  0.51  0.37  0.20  0.00  0.00   73.97   71.60    2.89    0.00    0.61
 2000 360   128     1     1     9.9   14.4   16572    8.1    6.2   0.5   0.6   0.5   0.5   0.5   0.5   0.5   0.5   0.0   0.0   0.1   0.3   0.5   0.4   0.4  0.52  0.37  0.20  0.00  0.00   74.45   72.07    2.89    0.00    0.62
 2000 361   129     1     1     9.9   14.3   16572    8.1    6.1   0.3   0.6   0.7   0.5   0.5   0.5   0.5   0.5   0.0   0.0   0.1   0.3   0.5   0.4   0.4  0.51  0.36  0.19  0.00  0.00   74.91   72.52    2.89    0.00    0.62
 2000 362   130     1     1     9.9   13.9   16571    7.5    6.4   0.3   0.2   0.4   0.5   0.5   0.5   0.5   0.5   0.0   0.0   0.1   0.5   0.6   0.4   0.4  0.52  0.36  0.19  0.00  0.00   75.58   72.91    2.89    0.00    0.62
 2000 363   131     1     1     9.9   14.1   16571    7.4    6.7   0.3   0.2   0.4   0.5   0.5   0.5   0.5   0.5   0.0   0.0   0.3   0.6   0.6   0.4   0.4  0.51  0.36  0.19  0.00  0.00   76.30   73.18    2.89    0.00    0.62
 2000 364   132     1     1     9.9   14.5   16570    8.2    6.3   0.8   0.4   0.5   0.5   0.5   0.5   0.5   0.5   0.0   0.0   0.0   0.5   0.6   0.4   0.4  0.52  0.36  0.19  0.00  0.00   77.05   73.99    2.89    0.00    0.63
 2000 365   133     1     1     9.9   14.3   16569    7.9    6.4   0.2   0.6   0.6   0.5   0.5   0.5   0.5   0.5   0.0   0.0   0.2   0.5   0.6   0.4   0.4  0.51  0.35  0.18  0.00  0.00   77.79   74.48    2.89    0.00    0.63
 2000 366   134     1     1     9.9   13.9   16569    7.5    6.4   0.5   0.4   0.3   0.5   0.5   0.5   0.5   0.5   0.0   0.0   0.1   0.5   0.6   0.4   0.4  0.52  0.35  0.18  0.00  0.00   78.51   75.10    2.89    0.00    0.63
 2001 001   135     1     1     9.9   14.2   16568    7.9    6.3   0.6   0.5   0.4   0.4   0.5   0.5   0.5   0.5   0.0   0.0   0.1   0.5   0.6   0.4   0.4  0.51  0.35  0.18  0.00  0.00   79.19   75.62    2.89    0.00    0.64
 2001 002   136     1     1     9.9   14.2   16567    7.9    6.3   0.7   0.4   0.5   0.5   0.5   0.5   0.5   0.5   0.0   0.0   0.1   0.5   0.6   0.4   0.4  0.52  0.34  0.18  0.00  0.00   79.84   76.17    2.89    0.00    0.64
 2001 003   137     1     1     9.9   14.6   16567    8.4    6.2   0.8   0.6   0.5   0.5   0.5   0.5   0.5   0.5   0.0   0.0   0.1   0.4   0.5   0.4   0.4  0.51  0.34  0.17  0.00  0.00   80.46   76.72    2.89    0.00    0.64
 2001 004   138     1     1     9.9   14.1   16566    7.9    6.2   0.8   0.5   0.3   0.5   0.5   0.5   0.5   0.5   0.0   0.0   0.1   0.4   0.5   0.4   0.4  0.52  0.34  0.17  0.00  0.00   81.07   77.30    2.89    0.00    0.64
 2001 005   139     1     1     9.9   13.7   16566    7.6    6.1   0.3   0.4   0.4   0.5   0.5   0.5   0.5   0.5   0.0   0.0   0.1   0.4   0.5   0.4   0.4  0.51  0.34  0.17  0.00  0.00   81.73   77.88    2.89    0.00    0.64
 2001 006   140     1     1     9.9   14.3   16565    8.2    6.0   0.6   0.6   0.5   0.5   0.5   0.5   0.5   0.5   0.0   0.0   0.0   0.3   0.5   0.4   0.4  0.52  0.34  0.17  0.00  0.00   82.37   78.54    2.89    0.00    0.65
 2001 007   141     1     1     9.9   14.1   16564    8.1    6.0   0.1   0.5   0.8   0.5   0.5   0.5   0.5   0.5   0.0   0.0   0.1   0.3   0.5   0.4   0.4  0.51  0.33  0.17  0.00  0.00   82.99   79.10    2.89    0.00    0.65
 2001 008   142     1     1     9.9   14.0   16564    7.6    6.4   0.4   0.5   0.2   0.6   0.5   0.5   0.5   0.5   0.0   0.0   0.1   0.5   0.7   0.4   0.4  0.52  0.33  0.16  0.00  0.00   83.82   79.49    2.89    0.00    0.65
 2001 009   143     1     1     9.9   14.1   16563    7.7    6.4   0.4   0.5   0.4   0.5   0.5   0.5   0.5   0.5   0.0   0.0   0.1   0.6   0.6   0.4   0.4  0.51  0.33  0.16  0.00  0.00   84.64   79.98    2.89    0.00    0.65
 2001 010   144     1     1     9.9   14.6   16562    8.0    6.6   0.5   0.5   0.4   0.5   0.6   0.5   0.5   0.5   0.0   0.0   0.1   0.6   0.6   0.5   0.4  0.52  0.33  0.16  0.00  0.00   85.47   80.32    2.89    0.00    0.66
 2001 011   145     1     1     9.9   14.4   16561    7.7    6.8   0.5   0.5   0.4   0.5   0.5   0.5   0.5   0.5   0.0   0.0   0.2   0.6   0.6   0.5   0.4  0.51  0.32  0.16  0.00  0.00   86.26   80.52    2.89    0.00    0.66
 2001 012   146     1     1     9.9   14.5   16561    7.9    6.6   0.8   0.4   0.4   0.5   0.5   0.5   0.5   0.5   0.0   0.0   0.1   0.5   0.6   0.5   0.4  0.52  0.32  0.16  0.00  0.00   87.01   81.08    2.89    0.00    0.66
 2001 013   147     1     1     9.9   14.6   16560    8.1    6.5   0.4   0.6   0.5   0.5   0.5   0.5   0.5   0.5   0.0   0.0   0.1   0.5   0.6   0.5   0.4  0.51  0.32  0.16  0.00  0.00   87.74   81.54    2.89    0.00    0.67
 2001 014   148     1     1     9.9   14.2   16559    7.7    6.5   0.4   0.4   0.4   0.5   0.5   0.5   0.5   0.5   0.0   0.0   0.1   0.5   0.6   0.5   0.4  0.52  0.32  0.15  0.00  0.00   88.46   82.07    2.89    0.00    0.67
 2001 015   149     1     1     9.9   13.6   16559    6.8    6.8   0.6   0.4   0.4   0.2   0.3   0.5   0.5   0.5   0.0   0.0   0.1   0.6   0.6   0.5   0.4  0.51  0.32  0.15  0.00  0.00   89.18   82.33    2.89    0.00    0.67
 2001 016   150     1     1     9.9   13.6   16558    6.8    6.8   0.4   0.4   0.4   0.3   0.3   0.5   0.5   0.5   0.0   0.0   0.1   0.6   0.6   0.5   0.4  0.52  0.32  0.15  0.00  0.00   89.94   82.64    2.89    0.00    0.67
 2001 017   151     1     1     9.9   13.9   16557    7.4    6.5   0.6   0.6   0.5   0.3   0.3   0.5   0.5   0.5   0.0   0.0   0.1   0.5   0.6   0.5   0.4  0.51  0.31  0.15  0.00  0.00   90.73   83.31    2.89    0.00    0.68
 2001 018   152     1     1     9.9   13.9   16557    7.4    6.6   0.4   0.4   0.5   0.4   0.4   0.5   0.5   0.5   0.0   0.0   0.1   0.5   0.6   0.5   0.5  0.52  0.31  0.15  0.00  0.00   91.54   83.92    2.89    0.00    0.68
 2001 019   153     1     1     9.9   14.0   16556    7.5    6.5   0.6   0.6   0.3   0.4   0.4   0.5   0.5   0.5   0.0   0.0   0.1   0.5   0.6   0.5   0.5  0.51  0.31  0.15  0.00  0.00   92.33   84.52    2.89    0.00    0.68
 2001 020   154     1     1     9.9   14.1   16555    7.5    6.6   0.4   0.4   0.4   0.4   0.4   0.5   0.5   0.5   0.0   0.0   0.1   0.5   0.6   0.5   0.5  0.52  0.31  0.15  0.00  0.00   93.11   85.11    2.89    0.00    0.68
 2001 021   155     1     1     9.9   14.6   16555    8.0    6.6   0.6   0.5   0.5   0.5   0.5   0.5   0.5   0.5   0.0   0.0   0.1   0.5   0.6   0.5   0.5  0.51  0.31  0.14  0.00  0.00   93.87   85.69    2.89    0.00    0.69
 2001 022   156     1     1     9.9   14.5   16554    7.9    6.6   0.6   0.4   0.5   0.5   0.5   0.5   0.5   0.5   0.0   0.0   0.1   0.5   0.6   0.5   0.5  0.52  0.31  0.14  0.00  0.00   94.59   86.24    2.89    0.00    0.69
 2001 023   157     1     1     9.9   14.1   16553    7.6    6.6   0.6   0.5   0.3   0.4   0.5   0.5   0.5   0.5   0.0   0.0   0.1   0.5   0.6   0.5   0.5  0.51  0.30  0.14  0.00  0.00   95.31   86.79    2.89    0.00    0.69
 2001 024   158     1     1     9.9   14.0   16553    7.4    6.6   0.7   0.4   0.4   0.4   0.4   0.5   0.5   0.5   0.0   0.0   0.1   0.4   0.6   0.5   0.5  0.52  0.30  0.14  0.00  0.00   96.02   87.37    2.89    0.00    0.69
 2001 025   159     1     1     9.9   14.3   16552    7.9    6.5   0.8   0.6   0.5   0.5   0.4   0.5   0.5   0.5   0.0   0.0   0.1   0.4   0.6   0.5   0.5  0.51  0.30  0.14  0.00  0.00   96.72   87.96    2.89    0.00    0.70
 2001 026   160     1     1     9.9   14.6   16551    8.2    6.5   0.9   0.5   0.5   0.5   0.4   0.5   0.5   0.5   0.0   0.0   0.1   0.4   0.5   0.5   0.5  0.52  0.30  0.14  0.00  0.00   97.42   88.58    2.89    0.00    0.70
 2001 027   161     1     1     9.9   13.9   16551    7.5    6.4   0.1   0.6   0.4   0.4   0.5   0.5   0.5   0.5   0.0   0.0   0.1   0.3   0.5   0.5   0.5  0.51  0.30  0.14  0.00  0.00   98.15   89.20    2.89    0.00    0.70
 2001 028   162     1     1     9.9   14.2   16550    7.7    6.4   0.4   0.4   0.5   0.5   0.5   0.5   0.5   0.5   0.0   0.0   0.1   0.4   0.5   0.5   0.5  0.52  0.30  0.14  0.00  0.00   98.94   89.87    2.89    0.00    0.70
 2001 029   163     1     1     9.9   14.6   16549    8.2    6.5   0.5   0.5   0.5   0.5   0.5   0.5   0.5   0.5   0.0   0.0   0.1   0.4   0.5   0.5   0.5  0.51  0.30  0.14  0.00  0.00   99.70   90.45    2.89    0.00    0.71
 2001 030   164     1     1     9.9   14.3   16548    7.8    6.5   0.7   0.4   0.4   0.6   0.4   0.5   0.5   0.5   0.0   0.0   0.1   0.4   0.5   0.5   0.5  0.52  0.30  0.13  0.00  0.00  100.42   91.06    2.89    0.00    0.71
 2001 031   165     1     1     9.9   14.3   16548    7.8    6.5   0.7   0.5   0.4   0.5   0.5   0.5   0.5   0.5   0.0   0.0   0.1   0.4   0.5   0.5   0.5  0.51  0.29  0.13  0.00  0.00  101.08   91.61    2.89    0.00    0.71
 2001 032   166     1     1     9.9   14.5   16547    8.0    6.5   0.8   0.4   0.5   0.5   0.5   0.5   0.5   0.5   0.0   0.0   0.1   0.4   0.5   0.5   0.5  0.52  0.29  0.13  0.00  0.00  101.70   92.15    2.89    0.00    0.71
 2001 033   167     1     1     9.9   15.0   16547    8.5    6.4   0.9   0.5   0.6   0.5   0.5   0.5   0.5   0.5   0.0   0.0   0.1   0.4   0.5   0.5   0.5  0.52  0.29  0.13  0.00  0.00  102.31   92.70    2.89    0.00    0.72
 2001 034   168     1     1     9.9   15.4   16546    9.0    6.4   1.0   0.7   0.6   0.6   0.6   0.5   0.5   0.5   0.0   0.0   0.1   0.4   0.5   0.5   0.5  0.52  0.29  0.13  0.00  0.00  102.96   93.29    2.89    0.00    0.72
 2001 035   169     1     1     9.9   16.0   16546    9.5    6.5   1.1   0.8   0.7   0.6   0.6   0.5   0.5   0.5   0.0   0.0   0.1   0.4   0.6   0.5   0.5  0.53  0.29  0.13  0.00  0.00  103.59   93.87    2.89    0.00    0.72
 2001 036   170     1     1     9.9   16.6   16545   10.1    6.5   1.2   0.9   0.8   0.7   0.6   0.5   0.5   0.5   0.0   0.0   0.1   0.3   0.6   0.5   0.5  0.54  0.29  0.13  0.00  0.00  104.23   94.45    2.89    0.00    0.72
 2001 037   171     1     1     9.9   17.2   16544   10.6    6.6   1.3   1.1   0.8   0.7   0.7   0.5   0.5   0.5   0.0   0.0   0.1   0.3   0.6   0.5   0.5  0.55  0.29  0.13  0.00  0.00  104.85   95.01    2.89    0.00    0.72
 2001 038   172     1     1     9.9   17.8   16544   11.2    6.6   1.5   1.2   0.9   0.8   0.7   0.5   0.6   0.5   0.0   0.0   0.1   0.3   0.6   0.5   0.5  0.56  0.29  0.13  0.00  0.00  105.47   95.58    2.89    0.00    0.72
 2001 039   173     1     1     9.9   18.4   16543   11.8    6.7   0.6   1.4   1.2   0.8   0.7   0.5   0.6   0.5   0.0   0.0   0.1   0.3   0.6   0.5   0.5  0.57  0.29  0.13  0.00  0.00  106.09   96.16    2.89    0.00    0.73

*DSSAT Cropping System Model Ver. 4.0.2.000               Aug 23, 2016; 20:22:27

*RUN   3        : UYSB                    
 MODEL          : CRGRO040 - Soybean         
 EXPERIMENT     : UYSB0397 SB    late to create DSS                             
 TREATMENT  1   : UYSB                    

@YEAR DOY   DAS  NAPC  NI#M    NLCC   NIAD    NOAD   NITD   NHTD  NI1D  NI2D  NI3D  NI4D  NI5D  NI6D  NI7D  NI8D  NI9D  NI10  NH1D  NH2D  NH3D  NH4D  NH5D  NH6D  NH7D  NH8D  NH9D  NH10    NMNC    NITC    NDNC    NIMC    AMLC
 2001 232     0     0     0     0.0   54.7   16646   31.9   22.9   5.9   5.2   5.1   4.7   2.6   0.0   0.1   0.1   0.0   0.0   0.6   1.3   1.5   1.4   1.5  1.50  1.47  1.45  0.00  0.00    0.50    1.58    0.00    0.00    0.00
 2001 233     1     0     0     0.0   55.2   16645   33.1   22.1   6.3   5.5   5.2   4.8   2.6   0.0   0.1   0.1   0.0   0.0   0.3   1.2   1.4   1.4   1.4  1.51  1.43  1.41  0.00  0.00    1.00    2.81    0.00    0.00    0.00
 2001 234     2     0     0     0.0   55.7   16645   34.1   21.6   6.5   5.6   5.3   4.9   2.7   0.1   0.1   0.2   0.0   0.0   0.2   1.1   1.4   1.3   1.4  1.51  1.40  1.37  0.00  0.00    1.49    3.87    0.00    0.00    0.00
 2001 235     3     0     0     0.0   56.2   16644   35.1   21.1   6.7   5.8   5.5   4.9   2.8   0.1   0.2   0.2   0.0   0.0   0.1   1.0   1.4   1.3   1.3  1.51  1.37  1.33  0.00  0.00    1.98    4.86    0.00    0.00    0.00
 2001 236     4     1     1     0.0   57.7   16644   36.6   21.1   7.7   6.0   5.6   5.0   2.8   0.1   0.2   0.2   0.0   0.0   1.0   0.9   1.4   1.3   1.3  1.51  1.34  1.29  0.00  0.00    2.48    5.80    0.00    0.00    0.04
 2001 237     5     1     1     0.0   58.1   16643   37.8   20.4   8.3   6.1   5.7   5.1   2.9   0.1   0.3   0.3   0.0   0.0   0.4   0.9   1.4   1.2   1.2  1.52  1.31  1.25  0.00  0.00    2.98    7.00    0.00    0.00    0.06
 2001 238     6     1     1     0.0   58.7   16643   38.8   19.9   8.6   6.3   5.8   5.1   2.9   0.1   0.3   0.3   0.0   0.0   0.2   0.8   1.3   1.2   1.2  1.52  1.28  1.21  0.00  0.00    3.50    8.02    0.00    0.00    0.07
 2001 239     7     1     1     0.0   59.2   16642   39.8   19.4   8.3   6.6   5.9   5.2   3.0   0.1   0.3   0.4   0.0   0.0   0.1   0.7   1.3   1.1   1.2  1.52  1.25  1.18  0.00  0.00    4.08    9.00    0.00    0.00    0.09
 2001 240     8     1     1     0.0   59.7   16641   40.7   19.0   8.3   6.8   6.0   5.3   3.1   0.2   0.4   0.4   0.0   0.0   0.0   0.7   1.3   1.1   1.1  1.52  1.22  1.14  0.00  0.00    4.66    9.94    0.00    0.00    0.15
 2001 241     9     1     1     0.0   60.3   16641   41.6   18.7   8.3   6.9   6.2   5.4   3.1   0.2   0.4   0.4   0.0   0.0   0.1   0.7   1.3   1.1   1.1  1.53  1.20  1.11  0.00  0.00    5.25   10.80    0.00    0.00    0.15
 2001 242    10     1     1     0.0   60.9   16640   42.5   18.4   8.4   7.1   6.3   5.4   3.2   0.2   0.5   0.5   0.0   0.0   0.1   0.6   1.3   1.0   1.1  1.53  1.17  1.07  0.00  0.00    5.84   11.70    0.00    0.00    0.17
 2001 243    11     1     1     0.0   61.5   16640   43.4   18.1   4.7   9.0   6.5   5.5   3.2   0.2   0.5   0.5   0.0   0.0   0.1   0.6   1.3   1.0   1.0  1.53  1.14  1.04  0.00  0.00    6.46   12.59    0.00    0.00    0.19
 2001 244    12     1     1     0.0   62.1   16639   44.1   18.0   1.4   4.7   6.3   6.5   5.1   0.6   0.6   0.6   0.0   0.0   0.1   0.7   1.3   1.0   1.0  1.54  1.12  1.01  0.00  0.00    7.06   13.33    0.00    0.00    0.21
 2001 245    13     1     1     0.1   62.6   16638   44.2   18.4   0.9   3.9   5.9   6.1   5.3   1.1   0.7   0.6   0.0   0.0   0.1   0.8   1.3   1.0   1.0  1.55  1.12  1.00  0.00  0.00    7.66   13.49    0.00    0.00    0.23
 2001 246    14     1     1     0.2   63.0   16638   44.2   18.8   0.9   3.8   5.9   6.0   5.3   1.2   0.7   0.6   0.0   0.0   0.2   0.8   1.4   1.0   1.1  1.57  1.13  1.00  0.00  0.00    8.26   13.63    0.00    0.00    0.26
 2001 247    15     1     1     0.4   63.3   16637   44.1   19.2   0.9   3.8   5.8   5.8   5.2   1.3   0.7   0.6   0.0   0.0   0.2   0.9   1.5   1.1   1.1  1.59  1.13  1.00  0.00  0.00    8.84   13.78    0.00    0.00    0.30
[...]
 2013 305    73     1     1     8.8   67.6   16604   50.3   17.3   1.1   1.5   3.0   4.0   4.8   3.6   2.8   2.1   0.0   0.0   0.1   0.5   1.2   0.9   1.0  1.92  0.88  0.53  0.00  0.00   41.69   43.54    1.19    0.00    0.74
 2013 306    74     1     1    11.2   64.6   16604   47.6   17.0   0.4   0.9   2.2   3.0   4.0   3.8   3.2   2.6   0.0   0.0   0.1   0.5   1.1   0.8   1.0  1.91  0.87  0.52  0.00  0.00   42.36   44.18    1.20    0.00    0.75
 2013 307    75     1     1    12.4   62.8   16603   45.6   17.2   0.4   0.9   2.0   2.8   3.8   3.6   3.2   2.6   0.0   0.0   0.2   0.6   1.1   0.8   1.0  1.90  0.87  0.52  0.00  0.00   43.02   44.30    1.32    0.00    0.75
 2013 308    76     1     1    13.1   60.5   16602   43.7   16.8   0.7   0.8   1.7   2.7   3.6   3.5   3.1   2.5   0.0   0.0   0.1   0.6   1.1   0.8   1.0  1.87  0.86  0.52  0.00  0.00   43.69   44.61    1.39    0.00    0.75
 2013 309    77     1     1    13.4   58.2   16602   42.0   16.2   0.8   0.8   1.5   2.5   3.4   3.4   3.0   2.5   0.0   0.0   0.1   0.5   1.0   0.8   1.0  1.82  0.84  0.51  0.00  0.00   44.34   44.99    1.43    0.00    0.76
 2013 310    78     1     1    13.5   55.7   16601   40.2   15.5   0.9   0.8   1.3   2.4   3.3   3.2   2.9   2.5   0.0   0.0   0.1   0.5   0.8   0.8   0.9  1.76  0.82  0.51  0.00  0.00   44.99   45.48    1.44    0.00    0.76
 2013 311    79     1     1    13.5   52.6   16600   38.1   14.5   0.9   0.8   1.1   2.2   3.0   3.1   2.8   2.4   0.0   0.0   0.1   0.5   0.7   0.7   0.9  1.67  0.79  0.51  0.00  0.00   45.63   46.00    1.45    0.00    0.76
 2013 312    80     1     1    13.5   49.8   16600   36.2   13.6   1.0   0.8   0.9   2.1   2.9   2.9   2.7   2.4   0.0   0.0   0.1   0.5   0.6   0.6   0.8  1.57  0.75  0.50  0.00  0.00   46.31   46.65    1.45    0.00    0.77
 2013 313    81     1     1    13.5   47.6   16599   34.8   12.8   1.0   0.9   0.8   2.0   2.7   2.8   2.6   2.3   0.0   0.0   0.1   0.5   0.6   0.6   0.7  1.48  0.72  0.50  0.00  0.00   47.00   47.27    1.45    0.00    0.77
 2013 314    82     1     1    13.9   45.5   16598   33.1   12.4   0.2   0.7   0.8   1.5   2.3   2.7   2.7   2.5   0.0   0.0   0.2   0.5   0.6   0.5   0.7  1.41  0.69  0.50  0.00  0.00   47.71   47.85    1.45    0.00    0.77
 2013 315    83     1     1    17.4   41.6   16598   29.1   12.5   0.4   0.4   0.6   1.1   1.8   2.4   2.6   2.5   0.0   0.0   0.1   0.6   0.6   0.5   0.7  1.39  0.68  0.50  0.00  0.00   48.37   48.07    1.46    0.00    0.77
 2013 316    84     1     1    18.4   39.8   16597   27.4   12.4   0.5   0.4   0.5   1.0   1.6   2.3   2.4   2.4   0.0   0.0   0.1   0.6   0.6   0.5   0.7  1.37  0.67  0.50  0.00  0.00   49.06   48.23    1.48    0.00    0.78
 2013 317    85     1     1    18.9   36.9   16596   25.3   11.6   0.6   0.6   0.5   0.8   1.4   2.1   2.3   2.3   0.0   0.0   0.1   0.5   0.6   0.5   0.6  1.26  0.64  0.50  0.00  0.00   49.74   48.58    1.48    0.00    0.78
 2013 318    86     1     1    19.0   32.8   16596   22.3   10.5   0.6   0.4   0.6   0.6   1.2   1.8   2.0   2.2   0.0   0.0   0.1   0.5   0.6   0.5   0.5  1.09  0.58  0.50  0.00  0.00   50.42   48.99    1.49    0.00    0.78
 2013 319    87     1     1    19.1   28.3   16595   18.8    9.5   0.0   0.5   0.3   0.5   0.8   1.4   1.8   2.1   0.0   0.0   0.1   0.5   0.6   0.5   0.5  0.90  0.51  0.50  0.00  0.00   51.15   49.46    1.50    0.00    0.79
 2013 320    88     1     1    19.8   26.5   16594   17.0    9.5   0.2   0.5   0.3   0.5   0.8   1.3   1.6   1.9   0.0   0.0   0.1   0.6   0.6   0.5   0.5  0.83  0.51  0.50  0.00  0.00   51.86   49.63    1.53    0.00    0.79
 2013 321    89     1     1    20.1   23.8   16594   14.8    9.1   0.3   0.3   0.3   0.5   0.6   1.0   1.4   1.7   0.0   0.0   0.1   0.6   0.6   0.5   0.5  0.71  0.51  0.50  0.00  0.00   52.60   49.84    1.54    0.00    0.79
 2013 322    90     1     1    20.1   21.2   16593   13.0    8.2   0.5   0.5   0.4   0.5   0.5   0.8   1.2   1.6   0.0   0.0   0.1   0.5   0.6   0.5   0.5  0.56  0.51  0.50  0.00  0.00   53.32   50.31    1.55    0.00    0.79
 2013 323    91     1     1    20.1   19.8   16592   11.7    8.0   0.5   0.6   0.5   0.5   0.5   0.6   1.0   1.5   0.0   0.0   0.1   0.5   0.6   0.5   0.5  0.52  0.51  0.49  0.00  0.00   54.07   50.74    1.55    0.00    0.80
 2013 324    92     1     1    20.1   18.5   16591   10.2    8.3   0.5   0.4   0.5   0.5   0.5   0.4   0.8   1.3   0.0   0.0   0.2   0.6   0.6   0.5   0.5  0.52  0.51  0.49  0.00  0.00   54.77   50.86    1.55    0.00    0.80
 2013 325    93     1     1    20.1   17.8   16591    9.6    8.3   0.5   0.5   0.5   0.5   0.5   0.4   0.6   1.2   0.0   0.0   0.1   0.6   0.6   0.5   0.5  0.52  0.51  0.49  0.00  0.00   55.48   51.14    1.55    0.00    0.80
 2013 326    94     1     1    20.1   17.0   16590    8.7    8.2   0.6   0.5   0.5   0.3   0.5   0.4   0.5   1.1   0.0   0.0   0.1   0.6   0.6   0.5   0.5  0.52  0.51  0.49  0.00  0.00   56.20   51.35    1.55    0.00    0.81
 2013 327    95     1     1    20.1   15.9   16589    7.9    7.9   0.4   0.7   0.3   0.3   0.3   0.4   0.5   1.0   0.0   0.0   0.1   0.5   0.6   0.5   0.5  0.52  0.50  0.49  0.00  0.00   56.93   51.89    1.55    0.00    0.81
 2013 328    96     1     1    20.1   15.6   16589    7.7    7.9   0.6   0.4   0.4   0.4   0.4   0.4   0.5   0.8   0.0   0.0   0.1   0.5   0.6   0.5   0.5  0.52  0.50  0.48  0.00  0.00   57.63   52.42    1.55    0.00    0.81
 2013 329    97     1     1    20.1   15.5   16588    7.7    7.9   0.6   0.5   0.4   0.4   0.4   0.4   0.4   0.8   0.0   0.0   0.1   0.5   0.6   0.5   0.5  0.52  0.49  0.47  0.00  0.00   58.37   53.01    1.55    0.00    0.82
 2013 330    98     1     1    20.1   15.5   16587    7.7    7.8   0.6   0.4   0.5   0.4   0.4   0.4   0.4   0.7   0.0   0.0   0.1   0.5   0.6   0.5   0.5  0.52  0.49  0.46  0.00  0.00   59.14   53.63    1.55    0.00    0.82
 2013 331    99     1     1    20.1   15.2   16586    7.5    7.8   0.1   0.6   0.4   0.5   0.5   0.5   0.4   0.6   0.0   0.0   0.1   0.5   0.6   0.5   0.5  0.52  0.48  0.45  0.00  0.00   59.93   54.26    1.55    0.00    0.82
 2013 332   100     1     1    20.1   15.4   16586    7.3    8.1   0.2   0.5   0.4   0.5   0.5   0.5   0.5   0.5   0.0   0.0   0.1   0.6   0.6   0.5   0.5  0.52  0.48  0.44  0.00  0.00   60.72   54.53    1.55    0.00    0.82
 2013 333   101     1     1    20.1   15.2   16585    7.2    8.1   0.4   0.3   0.4   0.5   0.5   0.5   0.5   0.5   0.0   0.0   0.1   0.6   0.6   0.5   0.5  0.52  0.48  0.43  0.00  0.00   61.52   54.84    1.55    0.00    0.83
 2013 334   102     1     1    20.1   15.5   16584    7.8    7.7   0.6   0.5   0.5   0.5   0.5   0.5   0.5   0.5   0.0   0.0   0.1   0.5   0.6   0.5   0.5  0.52  0.47  0.42  0.00  0.00   62.31   55.47    1.55    0.00    0.83
 2013 335   103     1     1    20.1   15.4   16583    7.7    7.6   0.5   0.6   0.5   0.5   0.3   0.5   0.5   0.5   0.0   0.0   0.1   0.5   0.6   0.5   0.5  0.52  0.47  0.41  0.00  0.00   63.08   56.08    1.55    0.00    0.83
 2013 336   104     1     1    20.1   14.4   16583    6.8    7.6   0.4   0.4   0.3   0.3   0.3   0.5   0.5   0.5   0.0   0.0   0.1   0.5   0.6   0.5   0.5  0.52  0.47  0.40  0.00  0.00   63.86   56.68    1.55    0.00    0.83
 2013 337   105     1     1    20.1   14.7   16582    7.1    7.6   0.6   0.5   0.4   0.3   0.4   0.5   0.4   0.5   0.0   0.0   0.1   0.5   0.6   0.5   0.5  0.52  0.46  0.39  0.00  0.00   64.64   57.31    1.55    0.00    0.84
 2013 338   106     1     1    20.1   14.6   16581    7.1    7.5   0.6   0.4   0.5   0.4   0.4   0.5   0.4   0.5   0.0   0.0   0.1   0.5   0.6   0.5   0.5  0.52  0.46  0.38  0.00  0.00   65.41   57.92    1.55    0.00    0.84
 2013 339   107     1     1    20.1   15.1   16580    7.6    7.5   0.6   0.6   0.5   0.4   0.4   0.5   0.4   0.5   0.0   0.0   0.1   0.4   0.6   0.5   0.5  0.52  0.46  0.37  0.00  0.00   66.18   58.54    1.55    0.00    0.84
 2013 340   108     1     1    20.1   14.1   16580    6.7    7.4   0.6   0.4   0.3   0.5   0.5   0.3   0.4   0.5   0.0   0.0   0.1   0.4   0.6   0.5   0.5  0.52  0.46  0.36  0.00  0.00   66.92   59.14    1.55    0.00    0.84
 2013 341   109     1     1    20.1   14.6   16579    7.2    7.4   0.7   0.5   0.4   0.5   0.5   0.3   0.4   0.5   0.0   0.0   0.1   0.4   0.6   0.5   0.5  0.52  0.45  0.36  0.00  0.00   67.62   59.72    1.55    0.00    0.84
 2013 342   110     1     1    20.1   14.4   16578    7.1    7.3   0.7   0.5   0.5   0.3   0.5   0.4   0.5   0.5   0.0   0.0   0.1   0.4   0.5   0.5   0.5  0.52  0.45  0.35  0.00  0.00   68.30   60.28    1.55    0.00    0.85
 2013 343   111     1     1    20.1   14.5   16578    7.3    7.3   0.8   0.6   0.5   0.4   0.4   0.4   0.5   0.5   0.0   0.0   0.1   0.4   0.5   0.5   0.5  0.52  0.45  0.34  0.00  0.00   68.98   60.87    1.55    0.00    0.85
 2013 344   112     1     1    20.1   14.2   16577    7.0    7.2   0.9   0.5   0.3   0.4   0.4   0.4   0.5   0.5   0.0   0.0   0.1   0.3   0.5   0.5   0.5  0.52  0.45  0.33  0.00  0.00   69.65   61.43    1.55    0.00    0.85
 2013 345   113     1     1    20.1   14.5   16576    7.4    7.1   1.0   0.5   0.4   0.5   0.4   0.4   0.5   0.5   0.0   0.0   0.1   0.3   0.5   0.5   0.5  0.52  0.44  0.33  0.00  0.00   70.28   61.98    1.55    0.00    0.85
 2013 346   114     1     1    20.1   15.0   16576    7.9    7.1   1.1   0.6   0.5   0.5   0.5   0.4   0.5   0.5   0.0   0.0   0.1   0.3   0.5   0.5   0.5  0.52  0.44  0.32  0.00  0.00   70.90   62.53    1.55    0.00    0.85
 2013 347   115     1     1    20.1   14.8   16575    7.8    7.1   1.2   0.6   0.6   0.4   0.5   0.4   0.4   0.5   0.0   0.0   0.1   0.3   0.5   0.5   0.5  0.52  0.44  0.32  0.00  0.00   71.49   63.05    1.55    0.00    0.86
 2013 348   116     1     1    20.1   14.9   16575    8.0    7.0   1.3   0.6   0.5   0.5   0.5   0.4   0.4   0.5   0.0   0.0   0.1   0.3   0.5   0.5   0.5  0.51  0.44  0.31  0.00  0.00   72.05   63.56    1.55    0.00    0.86
 2013 349   117     1     1    20.1   15.1   16574    8.1    6.9   1.4   0.6   0.6   0.5   0.5   0.4   0.4   0.5   0.0   0.0   0.1   0.3   0.5   0.5   0.5  0.51  0.43  0.30  0.00  0.00   72.59   64.08    1.55    0.00    0.86
 2013 350   118     1     1    20.1   15.1   16574    8.3    6.9   1.5   0.7   0.5   0.5   0.5   0.4   0.5   0.5   0.0   0.0   0.1   0.3   0.5   0.5   0.5  0.51  0.43  0.30  0.00  0.00   73.14   64.62    1.55    0.00    0.86
 2013 351   119     1     1    20.1   15.3   16573    8.5    6.8   1.6   0.7   0.5   0.5   0.5   0.4   0.5   0.5   0.0   0.0   0.1   0.2   0.5   0.5   0.5  0.51  0.43  0.29  0.00  0.00   73.69   65.18    1.55    0.00    0.86
 2013 352   120     1     1    20.1   15.4   16573    8.7    6.7   1.7   0.7   0.6   0.5   0.5   0.4   0.5   0.5   0.0   0.0   0.0   0.2   0.5   0.5   0.5  0.51  0.42  0.29  0.00  0.00   74.23   65.75    1.55    0.00    0.86
 2013 353   121     1     1    20.1   15.7   16572    9.1    6.6   1.8   0.8   0.6   0.6   0.5   0.4   0.5   0.5   0.0   0.0   0.0   0.2   0.5   0.5   0.5  0.51  0.42  0.28  0.00  0.00   74.75   66.31    1.55    0.00    0.86
 2013 354   122     1     1    20.1   15.8   16572    9.3    6.5   1.9   0.8   0.6   0.5   0.5   0.4   0.5   0.5   0.0   0.0   0.0   0.2   0.5   0.4   0.5  0.51  0.42  0.28  0.00  0.00   75.24   66.84    1.55    0.00    0.87
 2013 355   123     1     1    20.1   15.9   16571    9.5    6.4   2.0   0.9   0.7   0.5   0.5   0.4   0.5   0.5   0.0   0.0   0.0   0.2   0.5   0.4   0.5  0.51  0.41  0.27  0.00  0.00   75.71   67.35    1.55    0.00    0.87
 2013 356   124     1     1    20.1   16.0   16571    9.7    6.3   2.1   1.0   0.7   0.6   0.5   0.4   0.5   0.5   0.0   0.0   0.0   0.2   0.5   0.4   0.5  0.51  0.41  0.26  0.00  0.00   76.15   67.84    1.55    0.00    0.87
 2013 357   125     1     1    20.1   16.2   16570   10.0    6.3   2.2   1.0   0.8   0.6   0.5   0.5   0.5   0.5   0.0   0.0   0.0   0.2   0.5   0.4   0.4  0.52  0.40  0.26  0.00  0.00   76.56   68.32    1.55    0.00    0.87
 2013 358   126     1     1    20.1   16.4   16570   10.3    6.1   2.3   1.1   0.8   0.6   0.5   0.5   0.5   0.5   0.0   0.0   0.0   0.2   0.4   0.4   0.4  0.51  0.40  0.25  0.00  0.00   76.97   68.79    1.55    0.00    0.87
 2013 359   127     1     1    20.1   16.5   16570   10.5    6.0   2.4   1.1   0.9   0.6   0.5   0.5   0.5   0.5   0.0   0.0   0.0   0.1   0.4   0.4   0.4  0.52  0.39  0.25  0.00  0.00   77.37   69.25    1.55    0.00    0.87
 2013 360   128     1     1    20.1   16.7   16569   10.8    5.9   2.4   1.2   1.0   0.6   0.5   0.5   0.5   0.5   0.0   0.0   0.0   0.1   0.4   0.4   0.4  0.51  0.39  0.24  0.00  0.00   77.76   69.72    1.55    0.00    0.87
 2013 361   129     1     1    20.1   17.0   16569   11.1    5.8   2.5   1.2   1.0   0.6   0.6   0.5   0.5   0.5   0.0   0.0   0.0   0.1   0.4   0.4   0.4  0.51  0.38  0.24  0.00  0.00   78.16   70.19    1.55    0.00    0.87
 2013 362   130     1     1    20.1   17.2   16569   11.5    5.7   2.6   1.3   1.1   0.7   0.6   0.5   0.5   0.5   0.0   0.0   0.0   0.1   0.4   0.3   0.4  0.51  0.38  0.23  0.00  0.00   78.55   70.65    1.55    0.00    0.87
 2013 363   131     1     1    20.1   17.4   16568   11.8    5.6   2.7   1.4   1.1   0.7   0.6   0.5   0.5   0.5   0.0   0.0   0.0   0.1   0.4   0.3   0.4  0.51  0.37  0.23  0.00  0.00   78.93   71.10    1.55    0.00    0.87
 2013 364   132     1     1    20.1   17.8   16568   12.2    5.6   2.6   1.5   1.2   0.7   0.6   0.5   0.5   0.5   0.0   0.0   0.0   0.1   0.4   0.3   0.4  0.52  0.37  0.22  0.00  0.00   79.31   71.54    1.55    0.00    0.88
 2013 365   133     1     1    20.1   18.3   16567   12.7    5.6   2.6   1.6   1.3   0.8   0.6   0.5   0.5   0.5   0.0   0.0   0.2   0.1   0.3   0.3   0.4  0.53  0.36  0.22  0.00  0.00   79.81   71.98    1.55    0.00    0.88
 2014 001   134     1     1    20.1   17.7   16567   12.3    5.4   1.7   1.6   1.3   0.8   0.7   0.5   0.5   0.5   0.0   0.0   0.0   0.1   0.3   0.3   0.4  0.51  0.36  0.21  0.00  0.00   80.29   72.61    1.55    0.00    0.88
 2014 002   135     1     1    20.1   17.9   16567   12.4    5.4   1.6   1.7   1.4   0.8   0.7   0.5   0.5   0.5   0.0   0.0   0.2   0.1   0.3   0.3   0.3  0.51  0.35  0.21  0.00  0.00   80.72   72.97    1.55    0.00    0.88
 2014 003   136     1     1    20.1   18.3   16566   13.0    5.3   2.0   1.8   1.4   0.8   0.7   0.5   0.5   0.5   0.0   0.0   0.0   0.1   0.3   0.3   0.3  0.51  0.35  0.21  0.00  0.00   81.13   73.51    1.55    0.00    0.88
 2014 004   137     1     1    20.1   18.6   16566   13.3    5.3   2.0   1.8   1.5   0.9   0.7   0.5   0.5   0.5   0.0   0.0   0.1   0.1   0.3   0.3   0.3  0.52  0.34  0.20  0.00  0.00   81.51   73.85    1.55    0.00    0.88
 2014 005   138     1     1    20.1   19.0   16566   13.8    5.2   2.2   1.9   1.5   0.9   0.7   0.5   0.6   0.5   0.0   0.0   0.0   0.1   0.3   0.3   0.3  0.52  0.34  0.20  0.00  0.00   81.87   74.30    1.55    0.00    0.88
 2014 006   139     1     1    20.1   19.4   16565   14.1    5.3   2.2   1.9   1.6   0.9   0.8   0.5   0.6   0.5   0.0   0.0   0.1   0.1   0.3   0.3   0.3  0.53  0.33  0.19  0.00  0.00   82.23   74.63    1.55    0.00    0.88
 2014 007   140     1     1    20.1   19.7   16565   14.5    5.2   0.9   2.3   2.0   0.9   0.8   0.5   0.6   0.5   0.0   0.0   0.0   0.1   0.3   0.3   0.3  0.53  0.33  0.19  0.00  0.00   82.58   75.07    1.55    0.00    0.88
 2014 008   141     1     1    20.1   20.4   16564   14.8    5.6   0.9   2.2   2.1   1.0   0.8   0.6   0.6   0.6   0.0   0.0   0.2   0.4   0.4   0.3   0.3  0.53  0.32  0.19  0.00  0.00   83.27   75.34    1.55    0.00    0.88
 2014 009   142     1     1    20.1   18.2   16564   12.7    5.6   1.1   0.4   1.9   1.0   0.8   0.5   0.6   0.6   0.0   0.0   0.0   0.4   0.4   0.3   0.3  0.53  0.32  0.18  0.00  0.00   84.01   76.06    1.55    0.00    0.88
 2014 010   143     1     1    20.1   18.2   16563   12.5    5.7   0.9   0.6   1.7   1.0   0.9   0.5   0.6   0.5   0.0   0.0   0.2   0.4   0.4   0.3   0.3  0.52  0.32  0.18  0.00  0.00   84.70   76.58    1.55    0.00    0.88
 2014 011   144     1     1    20.1   18.0   16563   12.4    5.6   1.2   0.5   1.6   1.0   0.9   0.5   0.6   0.5   0.0   0.0   0.0   0.4   0.5   0.3   0.3  0.52  0.31  0.18  0.00  0.00   85.34   77.30    1.55    0.00    0.88
 2014 012   145     1     1    20.1   17.8   16562   12.1    5.7   1.1   0.5   1.5   1.1   0.9   0.5   0.6   0.5   0.0   0.0   0.2   0.4   0.5   0.3   0.3  0.51  0.31  0.17  0.00  0.00   85.92   77.76    1.55    0.00    0.88
 2014 013   146     1     1    20.1   17.7   16562   12.1    5.6   1.3   0.5   1.3   1.1   0.9   0.5   0.6   0.5   0.0   0.0   0.1   0.4   0.5   0.3   0.3  0.51  0.30  0.17  0.00  0.00   86.42   78.31    1.55    0.00    0.88
 2014 014   147     1     1    20.1   17.6   16561   12.0    5.5   1.2   0.7   1.3   1.1   0.9   0.5   0.6   0.5   0.0   0.0   0.1   0.4   0.5   0.3   0.3  0.51  0.30  0.17  0.00  0.00   86.89   78.75    1.55    0.00    0.88
 2014 015   148     1     1    20.1   17.0   16561   11.4    5.6   0.3   0.6   1.2   1.1   0.9   0.5   0.6   0.5   0.0   0.0   0.2   0.4   0.5   0.3   0.3  0.51  0.30  0.17  0.00  0.00   87.38   79.18    1.55    0.00    0.88
 2014 016   149     1     1    20.1   17.0   16561   11.5    5.5   0.5   0.6   1.2   1.1   0.9   0.5   0.6   0.5   0.0   0.0   0.1   0.4   0.5   0.3   0.3  0.51  0.29  0.16  0.00  0.00   87.85   79.67    1.55    0.00    0.88
 2014 017   150     1     1    20.1   17.1   16560   11.6    5.4   0.6   0.7   1.2   1.1   0.9   0.5   0.6   0.5   0.0   0.0   0.1   0.3   0.5   0.3   0.3  0.51  0.29  0.16  0.00  0.00   88.29   80.14    1.55    0.00    0.89
 2014 018   151     1     1    20.1   17.2   16560   11.8    5.3   0.8   0.8   1.2   1.1   0.9   0.5   0.6   0.5   0.0   0.0   0.1   0.3   0.5   0.3   0.3  0.51  0.29  0.16  0.00  0.00   88.72   80.63    1.55    0.00    0.89
 2014 019   152     1     1    20.1   17.6   16560   12.3    5.3   0.9   0.9   1.3   1.2   1.0   0.5   0.6   0.5   0.0   0.0   0.0   0.3   0.5   0.3   0.3  0.51  0.28  0.15  0.00  0.00   89.16   81.13    1.55    0.00    0.89
 2014 020   153     1     1    20.1   18.0   16559   12.8    5.2   1.0   1.0   1.3   1.2   1.0   0.5   0.6   0.5   0.0   0.0   0.0   0.2   0.5   0.2   0.3  0.52  0.28  0.15  0.00  0.00   89.59   81.63    1.55    0.00    0.89
 2014 021   154     1     1    20.1   18.6   16559   13.3    5.2   0.6   1.4   1.4   1.2   1.0   0.5   0.6   0.5   0.0   0.0   0.2   0.2   0.5   0.2   0.3  0.52  0.28  0.15  0.00  0.00   90.12   82.12    1.55    0.00    0.89
 2014 022   155     1     1    20.1   19.2   16558   13.9    5.3   1.0   1.4   1.5   1.3   1.0   0.6   0.6   0.5   0.0   0.0   0.0   0.4   0.5   0.2   0.3  0.52  0.27  0.15  0.00  0.00   90.80   82.69    1.55    0.00    0.89
 2014 023   156     1     1    20.1   19.9   16558   14.5    5.5   1.0   1.6   1.6   1.3   1.0   0.6   0.6   0.5   0.0   0.0   0.3   0.4   0.5   0.2   0.3  0.53  0.27  0.14  0.00  0.00   91.50   83.25    1.55    0.00    0.89
 2014 024   157     1     1    20.1   20.6   16557   15.3    5.3   1.2   1.9   1.7   1.3   1.1   0.6   0.6   0.5   0.0   0.0   0.0   0.4   0.5   0.2   0.3  0.53  0.27  0.14  0.00  0.00   92.17   84.06    1.55    0.00    0.89
 2014 025   158     1     1    20.1   21.3   16556   15.8    5.5   1.2   2.1   1.8   1.3   1.1   0.6   0.6   0.5   0.0   0.0   0.2   0.5   0.5   0.2   0.2  0.53  0.27  0.14  0.00  0.00   92.86   84.59    1.55    0.00    0.89
 2014 026   159     1     1    20.1   21.9   16556   16.5    5.4   1.7   2.3   1.9   1.4   1.1   0.6   0.6   0.6   0.0   0.0   0.0   0.5   0.5   0.2   0.2  0.54  0.26  0.14  0.00  0.00   93.51   85.33    1.55    0.00    0.89
 2014 027   160     1     1    20.1   22.5   16555   17.0    5.5   1.6   2.5   2.0   1.4   1.1   0.6   0.6   0.6   0.0   0.0   0.2   0.5   0.5   0.2   0.2  0.54  0.26  0.14  0.00  0.00   94.10   85.77    1.55    0.00    0.90
