*WATER BALANCE OUTPUT FILE

*DSSAT Cropping System Model Ver. 4.0.2.000               Aug 23, 2016; 20:22:27

*RUN   1        : UYSB                    
 MODEL          : CRGRO040 - Soybean         
 EXPERIMENT     : UYSB0397 SB    late to create DSS                             
 TREATMENT  1   : UYSB                    


     WATER BALANCE PARAMETERS
     ========================                  --mm--

     Soil H20 (start) on Year/day 1999/232     490.84
     Soil H20 (final) on Year/day 2000/024     393.89
     Effective Irrigation                        0.00
     Precipitation                             282.30
     Drainage                                    5.82
     Runoff                                      0.05
     Soil Evaporation                          174.96
     Transpiration                             198.41
     Potential ET                              772.50

     Final Balance                            -0.0001


*DSSAT Cropping System Model Ver. 4.0.2.000               Aug 23, 2016; 20:22:27

*RUN   2        : UYSB                    
 MODEL          : CRGRO040 - Soybean         
 EXPERIMENT     : UYSB0397 SB    late to create DSS                             
 TREATMENT  1   : UYSB                    


     WATER BALANCE PARAMETERS
     ========================                  --mm--

     Soil H20 (start) on Year/day 2000/232     490.84
     Soil H20 (final) on Year/day 2001/039     486.36
     Effective Irrigation                        0.00
     Precipitation                             812.20
     Drainage                                  185.58
     Runoff                                      0.75
     Soil Evaporation                          315.92
     Transpiration                             314.44
     Potential ET                              803.47

     Final Balance                            -0.0001


*DSSAT Cropping System Model Ver. 4.0.2.000               Aug 23, 2016; 20:22:27

*RUN   3        : UYSB                    
 MODEL          : CRGRO040 - Soybean         
 EXPERIMENT     : UYSB0397 SB    late to create DSS                             
 TREATMENT  1   : UYSB                    


     WATER BALANCE PARAMETERS
     ========================                  --mm--

     Soil H20 (start) on Year/day 2001/232     490.84
     Soil H20 (final) on Year/day 2002/032     495.94
     Effective Irrigation                        0.00
     Precipitation                            1055.30
     Drainage                                  419.47
     Runoff                                     68.62
     Soil Evaporation                          282.20
     Transpiration                             279.91
     Potential ET                              747.86

     Final Balance                             0.0000


*DSSAT Cropping System Model Ver. 4.0.2.000               Aug 23, 2016; 20:22:27

*RUN   4        : UYSB                    
 MODEL          : CRGRO040 - Soybean         
 EXPERIMENT     : UYSB0397 SB    late to create DSS                             
 TREATMENT  1   : UYSB                    


     WATER BALANCE PARAMETERS
     ========================                  --mm--

     Soil H20 (start) on Year/day 2002/232     490.84
     Soil H20 (final) on Year/day 2003/029     480.87
     Effective Irrigation                        0.00
     Precipitation                            1277.10
     Drainage                                  607.54
     Runoff                                    158.36
     Soil Evaporation                          291.52
     Transpiration                             229.65
     Potential ET                              734.38

     Final Balance                             0.0000


*DSSAT Cropping System Model Ver. 4.0.2.000               Aug 23, 2016; 20:22:27

*RUN   5        : UYSB                    
 MODEL          : CRGRO040 - Soybean         
 EXPERIMENT     : UYSB0397 SB    late to create DSS                             
 TREATMENT  1   : UYSB                    


     WATER BALANCE PARAMETERS
     ========================                  --mm--

     Soil H20 (start) on Year/day 2003/232     490.84
     Soil H20 (final) on Year/day 2004/040     439.61
     Effective Irrigation                        0.00
     Precipitation                             646.70
     Drainage                                  106.95
     Runoff                                      2.01
     Soil Evaporation                          277.86
     Transpiration                             311.12
     Potential ET                              838.04

     Final Balance                             0.0000


*DSSAT Cropping System Model Ver. 4.0.2.000               Aug 23, 2016; 20:22:27

*RUN   6        : UYSB                    
 MODEL          : CRGRO040 - Soybean         
 EXPERIMENT     : UYSB0397 SB    late to create DSS                             
 TREATMENT  1   : UYSB                    


     WATER BALANCE PARAMETERS
     ========================                  --mm--

     Soil H20 (start) on Year/day 2004/232     490.84
     Soil H20 (final) on Year/day 2005/036     399.11
     Effective Irrigation                        0.00
     Precipitation                             476.80
     Drainage                                   67.08
     Runoff                                      0.15
     Soil Evaporation                          233.08
     Transpiration                             268.22
     Potential ET                              837.42

     Final Balance                            -0.0001


*DSSAT Cropping System Model Ver. 4.0.2.000               Aug 23, 2016; 20:22:27

*RUN   7        : UYSB                    
 MODEL          : CRGRO040 - Soybean         
 EXPERIMENT     : UYSB0397 SB    late to create DSS                             
 TREATMENT  1   : UYSB                    


     WATER BALANCE PARAMETERS
     ========================                  --mm--

     Soil H20 (start) on Year/day 2005/232     490.84
     Soil H20 (final) on Year/day 2006/039     382.39
     Effective Irrigation                        0.00
     Precipitation                             584.40
     Drainage                                  188.08
     Runoff                                      8.02
     Soil Evaporation                          240.74
     Transpiration                             256.00
     Potential ET                              841.53

     Final Balance                             0.0001


*DSSAT Cropping System Model Ver. 4.0.2.000               Aug 23, 2016; 20:22:27

*RUN   8        : UYSB                    
 MODEL          : CRGRO040 - Soybean         
 EXPERIMENT     : UYSB0397 SB    late to create DSS                             
 TREATMENT  1   : UYSB                    


     WATER BALANCE PARAMETERS
     ========================                  --mm--

     Soil H20 (start) on Year/day 2006/232     490.84
     Soil H20 (final) on Year/day 2007/033     485.84
     Effective Irrigation                        0.00
     Precipitation                             546.30
     Drainage                                    0.00
     Runoff                                      0.05
     Soil Evaporation                          224.30
     Transpiration                             326.95
     Potential ET                              831.00

     Final Balance                             0.0001


*DSSAT Cropping System Model Ver. 4.0.2.000               Aug 23, 2016; 20:22:27

*RUN   9        : UYSB                    
 MODEL          : CRGRO040 - Soybean         
 EXPERIMENT     : UYSB0397 SB    late to create DSS                             
 TREATMENT  1   : UYSB                    


     WATER BALANCE PARAMETERS
     ========================                  --mm--

     Soil H20 (start) on Year/day 2007/232     490.84
     Soil H20 (final) on Year/day 2008/020     401.83
     Effective Irrigation                        0.00
     Precipitation                             497.00
     Drainage                                  150.04
     Runoff                                      2.46
     Soil Evaporation                          229.46
     Transpiration                             204.05
     Potential ET                              713.44

     Final Balance                             0.0001


*DSSAT Cropping System Model Ver. 4.0.2.000               Aug 23, 2016; 20:22:27

*RUN  10        : UYSB                    
 MODEL          : CRGRO040 - Soybean         
 EXPERIMENT     : UYSB0397 SB    late to create DSS                             
 TREATMENT  1   : UYSB                    


     WATER BALANCE PARAMETERS
     ========================                  --mm--

     Soil H20 (start) on Year/day 2008/232     490.84
     Soil H20 (final) on Year/day 2009/024     380.12
     Effective Irrigation                        0.00
     Precipitation                             310.00
     Drainage                                   26.77
     Runoff                                      0.00
     Soil Evaporation                          182.03
     Transpiration                             211.92
     Potential ET                              784.64

     Final Balance                             0.0000


*DSSAT Cropping System Model Ver. 4.0.2.000               Aug 23, 2016; 20:22:27

*RUN  11        : UYSB                    
 MODEL          : CRGRO040 - Soybean         
 EXPERIMENT     : UYSB0397 SB    late to create DSS                             
 TREATMENT  1   : UYSB                    


     WATER BALANCE PARAMETERS
     ========================                  --mm--

     Soil H20 (start) on Year/day 2009/232     490.84
     Soil H20 (final) on Year/day 2010/046     593.82
     Effective Irrigation                        0.00
     Precipitation                            1522.20
     Drainage                                  778.51
     Runoff                                     41.79
     Soil Evaporation                          306.38
     Transpiration                             292.54
     Potential ET                              796.50

     Final Balance                            -0.0003


*DSSAT Cropping System Model Ver. 4.0.2.000               Aug 23, 2016; 20:22:27

*RUN  12        : UYSB                    
 MODEL          : CRGRO040 - Soybean         
 EXPERIMENT     : UYSB0397 SB    late to create DSS                             
 TREATMENT  1   : UYSB                    


     WATER BALANCE PARAMETERS
     ========================                  --mm--

     Soil H20 (start) on Year/day 2010/232     490.84
     Soil H20 (final) on Year/day 2011/045     443.90
     Effective Irrigation                        0.00
     Precipitation                             525.50
     Drainage                                   67.05
     Runoff                                      1.81
     Soil Evaporation                          212.94
     Transpiration                             290.64
     Potential ET                              862.64

     Final Balance                             0.0000


*DSSAT Cropping System Model Ver. 4.0.2.000               Aug 23, 2016; 20:22:27

*RUN  13        : UYSB                    
 MODEL          : CRGRO040 - Soybean         
 EXPERIMENT     : UYSB0397 SB    late to create DSS                             
 TREATMENT  1   : UYSB                    


     WATER BALANCE PARAMETERS
     ========================                  --mm--

     Soil H20 (start) on Year/day 2011/232     490.84
     Soil H20 (final) on Year/day 2012/030     378.47
     Effective Irrigation                        0.00
     Precipitation                             439.90
     Drainage                                  117.22
     Runoff                                      0.00
     Soil Evaporation                          202.34
     Transpiration                             232.71
     Potential ET                              815.75

     Final Balance                             0.0000


*DSSAT Cropping System Model Ver. 4.0.2.000               Aug 23, 2016; 20:22:27

*RUN  14        : UYSB                    
 MODEL          : CRGRO040 - Soybean         
 EXPERIMENT     : UYSB0397 SB    late to create DSS                             
 TREATMENT  1   : UYSB                    


     WATER BALANCE PARAMETERS
     ========================                  --mm--

     Soil H20 (start) on Year/day 2012/232     490.84
     Soil H20 (final) on Year/day 2013/027     474.47
     Effective Irrigation                        0.00
     Precipitation                             820.60
     Drainage                                  219.38
     Runoff                                     46.31
     Soil Evaporation                          261.31
     Transpiration                             309.98
     Potential ET                              777.57

     Final Balance                             0.0001


*DSSAT Cropping System Model Ver. 4.0.2.000               Aug 23, 2016; 20:22:27

*RUN  15        : UYSB                    
 MODEL          : CRGRO040 - Soybean         
 EXPERIMENT     : UYSB0397 SB    late to create DSS                             
 TREATMENT  1   : UYSB                    


     WATER BALANCE PARAMETERS
     ========================                  --mm--

     Soil H20 (start) on Year/day 2013/232     490.84
     Soil H20 (final) on Year/day 2014/027     433.79
     Effective Irrigation                        0.00
     Precipitation                             792.80
     Drainage                                  299.90
     Runoff                                     31.24
     Soil Evaporation                          253.94
     Transpiration                             264.77
     Potential ET                              783.11

     Final Balance                             0.0000

