*GROWTH ASPECTS OUTPUT FILE

*DSSAT Cropping System Model Ver. 4.0.2.000               Aug 11, 2016; 19:59:17

*RUN   1        : UYMZ                    
 MODEL          : MZCER040 - Maize           
 EXPERIMENT     : UYMZ0147 MZ    late to create DSS                             
 TREATMENT  1   : UYMZ                    

@YEAR DOY   DAS   DAP   L#SD   GSTD   LAID   LWAD   SWAD   GWAD   RWAD   CWAD   G#AD   GWGD   HIAD   PWAD   P#AD   WSPD   WSGD   NSTD   EWSD   LN%D   SH%D   HIPD   PWDD   PWTD     SLAD   CHTD   CWID   RDPD   RL1D   RL2D   RL3D   RL4D   RL5D   RL6D   RL7D   RL8D   RL9D   RL10   CDAD   LDAD   SDAD   SNW0C   SNW1C
 1990 223     3     0    0.0      0   0.00      0      0      0      0      0      0    0.0  0.000      0      0  0.000  0.000  0.000  0.000   0.00   0.00   0.00      0      0      0.0   0.00   0.00   0.03   0.00   0.00   0.00   0.00   0.00   0.00   0.00   0.00   0.00   0.00      0      0      0       0       0
 1990 224     4     1    0.0      0   0.00      0      0      0      0      0      0    0.0  0.000      0      0  0.000  0.000  0.000  0.000   0.00   0.00   0.00      0      0      0.0   0.00   0.00   0.04   0.00   0.00   0.00   0.00   0.00   0.00   0.00   0.00   0.00   0.00      0      0      0       0       0
 1990 225     5     2    0.0      0   0.00      0      0      0      0      0      0    0.0  0.000      0      0  0.000  0.000  0.000  0.000   0.00   0.00   0.00      0      0      0.0   0.00   0.00   0.06   0.00   0.00   0.00   0.00   0.00   0.00   0.00   0.00   0.00   0.00      0      0      0       0       0
 1990 226     6     3    0.0      0   0.00      0      0      0      0      0      0    0.0  0.000      0      0  0.000  0.000  0.000  0.000   0.00   0.00   0.00      0      0      0.0   0.00   0.00   0.08   0.00   0.00   0.00   0.00   0.00   0.00   0.00   0.00   0.00   0.00      0      0      0       0       0
 1990 227     7     4    0.0      0   0.00      0      0      0      0      0      0    0.0  0.000      0      0  0.000  0.000  0.000  0.000   0.00   0.00   0.00      0      0      0.0   0.00   0.00   0.09   0.00   0.00   0.00   0.00   0.00   0.00   0.00   0.00   0.00   0.00      0      0      0       0       0
 1990 228     8     5    0.0      0   0.00      0      0      0      0      0      0    0.0  0.000      0      0  0.000  0.000  0.000  0.000   0.00   0.00   0.00      0      0      0.0   0.00   0.00   0.10   0.00   0.00   0.00   0.00   0.00   0.00   0.00   0.00   0.00   0.00      0      0      0       0       0
 1990 229     9     6    0.0      0   0.00      0      0      0      0      0      0    0.0  0.000      0      0  0.000  0.000  0.000  0.000   0.00   0.00   0.00      0      0      0.0   0.00   0.00   0.11   0.00   0.00   0.00   0.00   0.00   0.00   0.00   0.00   0.00   0.00      0      0      0       0       0
 1990 230    10     7    0.0      0   0.00      0      0      0      0      0      0    0.0  0.000      0      0  0.000  0.000  0.000  0.000   0.00   0.00   0.00      0      0      0.0   0.00   0.00   0.12   0.00   0.00   0.00   0.00   0.00   0.00   0.00   0.00   0.00   0.00      0      0      0       0       0
 1990 231    11     8    0.0      0   0.00      0      0      0      0      0      0    0.0  0.000      0      0  0.000  0.000  0.000  0.000   0.00   0.00   0.00      0      0      0.0   0.00   0.00   0.13   0.00   0.00   0.00   0.00   0.00   0.00   0.00   0.00   0.00   0.00      0      0      0       0       0
 1990 232    12     9    1.0      1   0.00     14     14      0     14     28      0    0.0  0.000      0      0  0.000  0.000  0.012  0.000   4.40   0.00   0.00      0      0     16.3   0.00   0.00   0.14   0.28   0.12   0.00   0.00   0.00   0.00   0.00   0.00   0.00   0.00      0      0      0       0       0
 1990 233    13    10    2.0      1   0.00     14     14      0     14     28      0    0.0  0.000      0      0  0.000  0.000  0.016  0.000   4.54   0.00   0.00      0      0     26.0   0.00   0.00   0.15   0.28   0.12   0.00   0.00   0.00   0.00   0.00   0.00   0.00   0.00      0      0      0       0       0
 1990 234    14    11    2.0      1   0.00     14     14      0     15     28      0    0.0  0.000      0      0  0.000  0.000  0.000  0.000   4.52   0.00   0.00      0      0     35.2   0.00   0.00   0.15   0.28   0.12   0.00   0.00   0.00   0.00   0.00   0.00   0.00   0.00      0      0      0       0       0
 1990 235    15    12    2.0      1   0.01     14     14      0     15     28      0    0.0  0.000      0      0  0.000  0.000  0.000  0.000   4.51   0.00   0.00      0      0     38.7   0.00   0.00   0.16   0.28   0.13   0.00   0.00   0.00   0.00   0.00   0.00   0.00   0.00      0      0      0       0       0
 1990 236    16    13    2.0      1   0.01     14     14      0     15     28      0    0.0  0.000      0      0  0.000  0.000  0.000  0.000   4.51   0.00   0.00      0      0     42.1   0.00   0.00   0.16   0.29   0.14   0.00   0.00   0.00   0.00   0.00   0.00   0.00   0.00      0      0      0       0       0
 1990 237    17    14    2.0      1   0.01     14     14      0     16     28      0    0.0  0.000      0      0  0.000  0.000  0.000  0.000   4.51   0.00   0.00      0      0     60.7   0.00   0.00   0.17   0.29   0.14   0.00   0.00   0.00   0.00   0.00   0.00   0.00   0.00      0      0      0       0       0
 1990 238    18    15    3.0      1   0.01     14     14      0     17     28      0    0.0  0.000      0      0  0.000  0.000  0.000  0.000   4.45   0.00   0.00      0      0     84.7   0.00   0.00   0.18   0.30   0.16   0.00   0.00   0.00   0.00   0.00   0.00   0.00   0.00      0      0      0       0       0
 1990 239    19    16    3.0      1   0.01     14     14      0     18     28      0    0.0  0.000      0      0  0.000  0.000  0.000  0.000   4.45   0.00   0.00      0      0     92.3   0.00   0.00   0.19   0.28   0.15   0.00   0.00   0.00   0.00   0.00   0.00   0.00   0.00      0      0      0       0       0
 1990 240    20    17    3.0      1   0.01     14     14      0     18     28      0    0.0  0.000      0      0  0.000  0.000  0.000  0.000   4.44   0.00   0.00      0      0     77.6   0.00   0.00   0.19   0.27   0.15   0.00   0.00   0.00   0.00   0.00   0.00   0.00   0.00      0      0      0       0       0
 1990 241    21    18    3.0      1   0.01     14     14      0     19     28      0    0.0  0.000      0      0  0.000  0.000  0.000  0.048   4.44   0.00   0.00      0      0     38.9   0.00   0.00   0.19   0.26   0.15   0.01   0.00   0.00   0.00   0.00   0.00   0.00   0.00      0      0      0       0       0
 1990 242    22    19    3.0      1   0.01     14     14      0     19     28      0    0.0  0.000      0      0  0.000  0.000  0.000  0.007   4.44   0.00   0.00      0      0     46.2   0.00   0.00   0.19   0.25   0.15   0.01   0.00   0.00   0.00   0.00   0.00   0.00   0.00      0      0      0       0       0
 1990 243    23    20    3.0      1   0.01     14     14      0     19     28      0    0.0  0.000      0      0  0.000  0.000  0.000  0.004   4.44   0.00   0.00      0      0     47.9   0.00   0.00   0.19   0.25   0.15   0.01   0.00   0.00   0.00   0.00   0.00   0.00   0.00      0      0      0       0       0
 1990 244    24    21    3.0      1   0.00     14     14      0     19     28      0    0.0  0.000      0      0  0.000  0.000  0.000  0.000   4.44   0.00   0.00      0      0     34.9   0.00   0.00   0.19   0.25   0.15   0.01   0.00   0.00   0.00   0.00   0.00   0.00   0.00      0      0      0       0       0
 1990 245    25    22    3.0      1   0.00     14     14      0     19     28      0    0.0  0.000      0      0  0.000  0.000  0.000  0.000   4.44   0.00   0.00      0      0     11.0   0.00   0.00   0.19   0.25   0.15   0.01   0.00   0.00   0.00   0.00   0.00   0.00   0.00      0      0      0       0       0
 1990 246    26    23    3.0      1   0.00     14     14      0     19     28      0    0.0  0.000      0      0  0.000  0.000  0.000  0.000   4.44   0.00   0.00      0      0     15.6   0.00   0.00   0.20   0.25   0.15   0.01   0.00   0.00   0.00   0.00   0.00   0.00   0.00      0      0      0       0       0
 1990 247    27    24    3.0      1   0.00     14     14      0     19     28      0    0.0  0.000      0      0  0.000  0.000  0.000  0.000   4.44   0.00   0.00      0      0     24.3   0.00   0.00   0.20   0.25   0.15   0.01   0.00   0.00   0.00   0.00   0.00   0.00   0.00      0      0      0       0       0
 1990 248    28    25    4.0      1   0.01     14     14      0     20     28      0    0.0  0.000      0      0  0.000  0.000  0.000  0.000   4.44   0.00   0.00      0      0     83.2   0.00   0.00   0.21   0.25   0.15   0.01   0.00   0.00   0.00   0.00   0.00   0.00   0.00      0      0      0       0       0
 1990 249    29    26    4.0      1   0.02     14     14      0     20     28      0    0.0  0.000      0      0  0.000  0.000  0.000  0.000   4.44   0.00   0.00      0      0    133.7   0.00   0.00   0.21   0.25   0.16   0.01   0.00   0.00   0.00   0.00   0.00   0.00   0.00      0      0      0       0       0
 1990 250    30    27    4.0      1   0.03     14     14      0     21     28      0    0.0  0.000      0      0  0.000  0.000  0.000  0.000   4.44   0.00   0.00      0      0    187.7   0.00   0.00   0.22   0.25   0.16   0.02   0.00   0.00   0.00   0.00   0.00   0.00   0.00      0      0      0       0       0
 1990 251    31    28    4.0      1   0.03     14     14      0     22     28      0    0.0  0.000      0      0  0.000  0.000  0.000  0.000   4.44   0.00   0.00      0      0    225.9   0.00   0.00   0.23   0.23   0.16   0.02   0.00   0.00   0.00   0.00   0.00   0.00   0.00      0      0      0       0       0
 1990 252    32    29    4.0      1   0.04     17     14      0     26     31      0    0.0  0.000      0      0  0.000  0.000  0.000  0.198   3.93   0.00   0.00      0      0    246.7   0.00   0.00   0.23   0.23   0.18   0.04   0.00   0.00   0.00   0.00   0.00   0.00   0.00      0      0      0       0       0
 1990 253    33    30    5.0      1   0.06     24     14      0     27     38      0    0.0  0.000      0      0  0.000  0.000  0.000  0.053   3.49   0.00   0.00      0      0    250.0   0.00   0.00   0.25   0.23   0.19   0.05   0.00   0.00   0.00   0.00   0.00   0.00   0.00      0      0      0       0       1
 1990 254    34    31    5.0      1   0.07     29     14      0     29     43      0    0.0  0.000      0      0  0.000  0.000  0.000  0.119   3.72   0.00   0.00      0      0    248.9   0.00   0.00   0.26   0.22   0.19   0.06   0.00   0.00   0.00   0.00   0.00   0.00   0.00      0      0      0       0       1
 1990 255    35    32    5.0      1   0.08     31     14      0     34     45      0    0.0  0.000      0      0  0.000  0.000  0.000  0.097   4.13   0.00   0.00      0      0    246.8   0.00   0.00   0.26   0.22   0.22   0.10   0.00   0.00   0.00   0.00   0.00   0.00   0.00      0      0      0       0       1
 1990 256    36    33    5.0      1   0.07     31     14      0     38     45      0    0.0  0.000      0      0  0.000  0.000  0.000  0.079   4.20   0.00   0.00      0      0    219.8   0.00   0.00   0.26   0.22   0.24   0.12   0.00   0.00   0.00   0.00   0.00   0.00   0.00      0      0      0       0       1
 1990 257    37    34    5.0      1   0.05     33     14      0     42     47      0    0.0  0.000      0      0  0.000  0.000  0.000  0.039   4.14   0.00   0.00      0      0    153.7   0.00   0.00   0.26   0.23   0.27   0.15   0.00   0.00   0.00   0.00   0.00   0.00   0.00      0      0      0       0       1
 1990 258    38    35    5.0      1   0.05     36     14      0     48     50      0    0.0  0.000      0      0  0.000  0.000  0.000  0.005   3.97   0.00   0.00      0      0    149.9   0.00   0.00   0.27   0.24   0.31   0.20   0.00   0.00   0.00   0.00   0.00   0.00   0.00      0      0      0       0       1
 1990 259    39    36    5.0      1   0.07     42     14      0     53     56      0    0.0  0.000      0      0  0.000  0.000  0.000  0.000   3.74   0.00   0.00      0      0    161.5   0.00   0.00   0.27   0.25   0.34   0.24   0.00   0.00   0.00   0.00   0.00   0.00   0.00      0      0      0       0       2
 1990 260    40    37    5.0      1   0.08     48     14      0     56     62      0    0.0  0.000      0      0  0.000  0.000  0.000  0.000   3.82   0.00   0.00      0      0    168.4   0.00   0.00   0.28   0.26   0.35   0.26   0.00   0.00   0.00   0.00   0.00   0.00   0.00      0      0      0       0       2
 1990 261    41    38    6.0      1   0.09     54     14      0     59     68      0    0.0  0.000      0      0  0.000  0.000  0.000  0.000   3.80   0.00   0.00      0      0    173.8   0.00   0.00   0.29   0.25   0.35   0.27   0.00   0.00   0.00   0.00   0.00   0.00   0.00      0      0      0       0       2
 1990 262    42    39    6.0      1   0.11     61     14      0     65     75      0    0.0  0.000      0      0  0.000  0.000  0.000  0.000   3.82   0.00   0.00      0      0    177.6   0.00   0.00   0.29   0.24   0.37   0.31   0.00   0.00   0.00   0.00   0.00   0.00   0.00      0      0      0       0       2
 1990 263    43    40    6.0      1   0.12     68     14      0     67     82      0    0.0  0.000      0      0  0.000  0.000  0.000  0.131   3.78   0.00   0.00      0      0    180.6   0.00   0.00   0.30   0.24   0.37   0.32   0.00   0.00   0.00   0.00   0.00   0.00   0.00      0      0      0       0       3
 1990 264    44    41    6.0      1   0.15     80     14      0     68     94      0    0.0  0.000      0      0  0.000  0.000  0.000  0.070   3.62   0.00   0.00      0      0    183.3   0.00   0.00   0.31   0.23   0.37   0.33   0.00   0.00   0.00   0.00   0.00   0.00   0.00      0      0      0       0       3
 1990 265    45    42    6.0      1   0.16     89     14      0     88    103      0    0.0  0.000      0      0  0.000  0.000  0.000  0.022   3.77   0.00   0.00      0      0    184.4   0.00   0.00   0.31   0.27   0.47   0.50   0.01   0.00   0.00   0.00   0.00   0.00   0.00      0      0      0       0       3
 1990 266    46    43    6.0      1   0.17     91     14      0     99    105      0    0.0  0.000      0      0  0.000  0.000  0.000  0.000   4.00   0.00   0.00      0      0    184.0   0.00   0.00   0.32   0.29   0.52   0.59   0.01   0.00   0.00   0.00   0.00   0.00   0.00      0      0      0       0       4
 1990 267    47    44    7.0      1   0.16     95     14      0    114    109      0    0.0  0.000      0      0  0.000  0.000  0.000  0.000   3.98   0.00   0.00      0      0    169.7   0.00   0.00   0.32   0.32   0.60   0.73   0.02   0.00   0.00   0.00   0.00   0.00   0.00      0      0      0       0       4
 1990 268    48    45    7.0      1   0.16     99     14      0    132    113      0    0.0  0.000      0      0  0.000  0.000  0.000  0.000   3.94   0.00   0.00      0      0    156.2   0.00   0.00   0.32   0.36   0.69   0.88   0.02   0.00   0.00   0.00   0.00   0.00   0.00      0      0      0       0       5
 1990 269    49    46    7.0      1   0.17    109     14      0    156    123      0    0.0  0.000      0      0  0.000  0.000  0.000  0.000   3.76   0.00   0.00      0      0    157.6   0.00   0.00   0.32   0.42   0.81   1.08   0.04   0.00   0.00   0.00   0.00   0.00   0.00      0      0      0       0       6
 1990 270    50    47    7.0      1   0.20    126     14      0    178    140      0    0.0  0.000      0      0  0.000  0.000  0.000  0.000   3.58   0.00   0.00      0      0    160.8   0.00   0.00   0.33   0.47   0.92   1.26   0.05   0.00   0.00   0.00   0.00   0.00   0.00      0      0      0       0       6
 1990 271    51    48    7.0      1   0.23    143     14      0    180    157      0    0.0  0.000      0      0  0.000  0.000  0.000  0.000   3.61   0.00   0.00      0      0    162.7   0.00   0.00   0.34   0.48   0.93   1.27   0.05   0.00   0.00   0.00   0.00   0.00   0.00      0      0      0       0       7
 1990 272    52    49    8.0      1   0.27    162     14      0    205    176      0    0.0  0.000      0      0  0.000  0.000  0.000  0.000   3.58   0.00   0.00      0      0    163.9   0.00   0.00   0.35   0.54   1.05   1.47   0.08   0.00   0.00   0.00   0.00   0.00   0.00      0      0      0       0       8
 1990 273    53    50    8.0      1   0.30    185     14      0    233    199      0    0.0  0.000      0      0  0.000  0.000  0.000  0.000   3.54   0.00   0.00      0      0    164.4   0.00   0.00   0.37   0.62   1.18   1.69   0.13   0.00   0.00   0.00   0.00   0.00   0.00      0      0      0       0       9
 1990 274    54    51    8.0      1   0.36    219     14      0    267    233      0    0.0  0.000      0      0  0.000  0.000  0.000  0.000   3.38   0.00   0.00      0      0    164.2   0.00   0.00   0.39   0.71   1.33   1.93   0.19   0.00   0.00   0.00   0.00   0.00   0.00      0      0      0       0      10
 1990 275    55    52    8.0      1   0.41    250     14      0    317    264      0    0.0  0.000      0      0  0.000  0.000  0.000  0.000   3.48   0.00   0.00      0      0    163.5   0.00   0.00   0.40   0.85   1.55   2.29   0.29   0.00   0.00   0.00   0.00   0.00   0.00      0      0      0       0      12
 1990 276    56    53    9.0      1   0.47    290     14      0    362    304      0    0.0  0.000      0      0  0.000  0.000  0.000  0.000   3.40   0.00   0.00      0      0    162.2   0.00   0.00   0.42   0.97   1.74   2.60   0.40   0.00   0.00   0.00   0.00   0.00   0.00      0      0      0       0      13
 1990 277    57    54    9.0      2   0.57    328     14      0    402    342      0    0.0  0.000      0      0  0.000  0.000  0.000  0.000   3.44   0.00   0.00      0      0    173.4   0.00   0.00   0.44   1.07   1.91   2.87   0.51   0.00   0.00   0.00   0.00   0.00   0.00      0      0      0       0      15
 1990 278    58    55    9.0      2   0.63    368     14      0    407    382      0    0.0  0.000      0      0  0.000  0.000  0.003  0.000   3.49   0.00   0.00      0      0    171.5   0.00   0.00   0.45   1.09   1.92   2.90   0.53   0.00   0.00   0.00   0.00   0.00   0.00      0      0      0       0      17
 1990 279    59    56   10.0      2   0.71    421     14      0    418    435      0    0.0  0.000      0      0  0.000  0.000  0.000  0.000   3.35   0.00   0.00      0      0    169.1   0.00   0.00   0.47   1.10   1.97   2.97   0.57   0.00   0.00   0.00   0.00   0.00   0.00      0      0      0       0      19
 1990 280    60    57   10.0      2   0.78    468     14      0    424    482      0    0.0  0.000      0      0  0.000  0.000  0.000  0.000   3.78   0.00   0.00      0      0    167.1   0.00   0.00   0.48   1.10   1.99   3.01   0.59   0.01   0.00   0.00   0.00   0.00   0.00      0      0      0       0      21
 1990 281    61    58   10.0      3   0.83    508     14      0    460    522      0    0.0  0.000      0      0  0.000  0.000  0.022  0.154   3.68   0.00   0.00      0      0    163.6   0.00   0.00   0.49   1.03   1.98   3.06   0.67   0.04   0.00   0.00   0.00   0.00   0.00      0      0      0       0      23
 1990 282    62    59   11.0      3   0.89    548     14      0    561    562      0    0.0  0.000      0      0  0.000  0.000  0.022  0.189   3.57   0.00   0.00      0      0    161.6   0.00   0.00   0.51   1.00   2.20   3.58   0.96   0.15   0.00   0.00   0.00   0.00   0.00      0      0      0       0      26
 1990 283    63    60   11.0      3   0.95    595     15      0    649    610      0    0.0  0.000      0      0  0.000  0.000  0.022  0.022   3.55   0.00   0.00      0      0    159.5   0.00   0.00   0.52   0.98   2.41   4.00   1.22   0.27   0.00   0.00   0.00   0.00   0.00      0      0      0       0      28
 1990 284    64    61   11.0      3   1.03    654     16      0    668    669      0    0.0  0.000      0      0  0.000  0.000  0.022  0.005   3.52   0.00   0.00      0      0    157.1   0.00   0.00   0.53   0.96   2.42   4.00   1.26   0.30   0.00   0.00   0.00   0.00   0.00      0      0      0       0      32
 1990 285    65    62   11.0      3   1.08    695     17      0    797    712      0    0.0  0.000      0      0  0.000  0.000  0.022  0.107   3.49   0.00   0.00      0      0    155.4   0.00   0.00   0.54   0.91   2.54   4.00   1.60   0.54   0.00   0.00   0.00   0.00   0.00      0      0      0       0      35
 1990 286    66    63   11.0      3   1.13    736     18      0    934    754      0    0.0  0.000      0      0  0.000  0.000  0.022  0.069   3.47   0.00   0.00      0      0    153.8   0.00   0.00   0.55   0.89   2.72   4.00   2.00   0.84   0.00   0.00   0.00   0.00   0.00      0      0      0       0      39
 1990 287    67    64   12.0      3   1.22    805     21      0   1052    826      0    0.0  0.000      0      0  0.000  0.000  0.022  0.026   3.45   0.00   0.00      0      0    151.6   0.00   0.00   0.56   0.89   2.89   4.00   2.37   1.14   0.00   0.00   0.00   0.00   0.00      0      0      0       0      44
 1990 288    68    65   12.0      3   1.28    855     24      0   1191    878      0    0.0  0.000      0      0  0.000  0.000  0.022  0.010   3.42   0.00   0.00      0      0    149.9   0.00   0.00   0.57   0.89   3.11   4.00   2.84   1.55   0.00   0.00   0.00   0.00   0.00      0      0      0       0      49
 1990 289    69    66   12.0      3   1.32    896     26      0   1344    922      0    0.0  0.000      0      0  0.000  0.000  0.022  0.000   3.41   0.00   0.00      0      0    147.5   0.00   0.00   0.57   0.91   3.36   4.00   3.41   2.07   0.00   0.00   0.00   0.00   0.00      0      0      0       0      55
 1990 290    70    67   12.0      3   1.39    952     31      0   1413    983      0    0.0  0.000      0      0  0.000  0.000  0.022  0.000   3.39   0.00   0.00      0      0    145.9   0.00   0.00   0.58   0.92   3.46   4.00   3.68   2.34   0.00   0.00   0.00   0.00   0.00      0      0      0       0      62
 1990 291    71    68   12.0      3   1.50   1043     40      0   1531   1083      0    0.0  0.000      0      0  0.000  0.000  0.022  0.000   3.36   0.00   0.00      0      0    143.7   0.00   0.00   0.60   0.93   3.63   4.00   4.00   2.84   0.00   0.00   0.00   0.00   0.00      0      0      0       0      69
 1990 292    72    69   13.0      3   1.61   1138     52      0   1599   1189      0    0.0  0.000      0      0  0.000  0.000  0.022  0.000   3.32   0.00   0.00      0      0    141.7   0.00   0.00   0.61   0.94   3.69   4.00   4.00   3.19   0.00   0.00   0.00   0.00   0.00      0      0      0       0      76
 1990 293    73    70   13.0      3   1.72   1234     67      0   1661   1301      0    0.0  0.000      0      0  0.000  0.000  0.022  0.000   3.29   0.00   0.00      0      0    139.7   0.00   0.00   0.62   0.94   3.70   4.00   4.00   3.48   0.02   0.00   0.00   0.00   0.00      0      0      0       0      84
 1990 294    74    71   13.0      3   1.83   1328     85      0   1774   1412      0    0.0  0.000      0      0  0.000  0.000  0.022  0.000   3.25   0.00   0.00      0      0    137.9   0.00   0.00   0.64   0.96   3.69   4.00   4.00   4.00   0.10   0.00   0.00   0.00   0.00      0      0      0       0      93
 1990 295    75    72   14.0      3   1.94   1421    106      0   1929   1526      0    0.0  0.000      0      0  0.000  0.000  0.022  0.001   3.22   0.00   0.00      0      0    136.2   0.00   0.00   0.65   0.99   3.69   4.00   4.00   4.00   0.26   0.00   0.00   0.00   0.00      0      0      0       0     102
 1990 296    76    73   14.0      3   2.04   1519    131      0   2033   1650      0    0.0  0.000      0      0  0.000  0.000  0.022  0.002   3.19   0.00   0.00      0      0    134.5   0.00   0.00   0.66   1.02   3.68   3.99   4.00   4.00   0.41   0.00   0.00   0.00   0.00      0      0      0       0     111
 1990 297    77    74   14.0      3   2.14   1606    158      0   2142   1764      0    0.0  0.000      0      0  0.000  0.000  0.022  0.003   3.16   0.00   0.00      0      0    133.1   0.00   0.00   0.67   1.05   3.69   3.99   4.00   4.00   0.60   0.00   0.00   0.00   0.00      0      0      0       0     121
 1990 298    78    75   14.0      3   2.23   1697    189      0   2194   1886      0    0.0  0.000      0      0  0.000  0.000  0.022  0.003   3.13   0.00   0.00      0      0    131.7   0.00   0.00   0.68   1.07   3.68   3.98   4.00   4.00   0.71   0.00   0.00   0.00   0.00      0      0      0       0     132
 1990 299    79    76   15.0      3   2.37   1820    237      0   2318   2057      0    0.0  0.000      0      0  0.000  0.000  0.022  0.000   3.08   0.00   0.00      0      0    130.0   0.00   0.00   0.70   1.11   3.71   4.00   4.00   4.00   1.00   0.00   0.00   0.00   0.00      0      0      0       0     143
 1990 300    80    77   15.0      3   2.51   1953    299      0   2383   2252      0    0.0  0.000      0      0  0.000  0.000  0.022  0.000   3.04   0.00   0.00      0      0    128.3   0.00   0.00   0.72   1.14   3.73   4.00   4.00   4.00   1.19   0.00   0.00   0.00   0.00      0      0      0       0     155
 1990 301    81    78   15.0      3   2.60   2046    349      0   2380   2395      0    0.0  0.000      0      0  0.000  0.000  0.022  0.000   3.01   0.00   0.00      0      0    127.1   0.00   0.00   0.73   1.14   3.71   3.98   4.00   4.00   1.21   0.00   0.00   0.00   0.00      0      0      0       0     167
 1990 302    82    79   16.0      3   2.73   2171    425      0   2379   2597      0    0.0  0.000      0      0  0.000  0.000  0.022  0.000   2.94   0.00   0.00      0      0    125.7   0.00   0.00   0.75   1.14   3.70   3.97   4.00   4.00   1.24   0.00   0.00   0.00   0.00      0      0      0       0     178
 1990 303    83    80   16.0      3   2.88   2315    526      0   2489   2842      0    0.0  0.000      0      0  0.000  0.000  0.022  0.000   2.77   0.00   0.00      0      0    124.2   0.00   0.00   0.77   1.22   3.77   4.00   4.00   4.00   1.68   0.00   0.00   0.00   0.00      0      0      0       0     190
 1990 304    84    81   17.0      3   2.98   2425    610      0   2629   3035      0    0.0  0.000      0      0  0.000  0.000  0.022  0.000   2.66   0.00   0.00      0      0    123.0   0.00   0.00   0.78   1.35   3.89   4.00   4.00   4.00   2.29   0.00   0.00   0.00   0.00      0      0      0       0     203
 1990 305    85    82   17.0      3   3.10   2544    711      0   2725   3254      0    0.0  0.000      0      0  0.000  0.000  0.023  0.000   2.54   0.00   0.00      0      0    121.8   0.00   0.00   0.79   1.46   3.99   4.00   4.00   4.00   2.74   0.00   0.00   0.00   0.00      0      0      0       0     216
 1990 306    86    83   17.0      3   3.21   2665    824      0   2786   3488      0    0.0  0.000      0      0  0.000  0.000  0.026  0.000   2.42   0.00   0.00      0      0    120.6   0.00   0.00   0.81   1.55   4.00   4.00   4.00   4.00   3.06   0.00   0.00   0.00   0.00      0      0      0       0     230
 1990 307    87    84   18.0      3   3.30   2764    927      0   2783   3690      0    0.0  0.000      0      0  0.000  0.000  0.030  0.000   2.34   0.00   0.00      0      0    119.5   0.00   0.00   0.83   1.56   4.00   4.00   3.99   3.99   3.09   0.00   0.00   0.00   0.00      0      0      0       0     243
 1990 308    88    85   18.0      3   3.37   2844   1016      0   2884   3860      0    0.0  0.000      0      0  0.000  0.000  0.036  0.000   2.27   0.00   0.00      0      0    118.5   0.00   0.00   0.84   1.77   4.00   4.00   4.00   4.00   3.52   0.00   0.00   0.00   0.00      0      0      0       0     257
 1990 309    89    86   18.0      3   3.40   2890   1069      0   3088   3959      0    0.0  0.000      0      0  0.000  0.000  0.042  0.000   2.23   0.00   0.00      0      0    117.6   0.00   0.00   0.84   2.24   4.00   4.00   4.00   4.00   4.00   0.00   0.00   0.00   0.00      0      0      0       0     272
 1990 310    90    87   18.0      3   3.45   2960   1152      0   3161   4112      0    0.0  0.000      0      0  0.000  0.000  0.046  0.001   2.17   0.00   0.00      0      0    116.5   0.00   0.00   0.85   2.47   4.00   4.00   4.00   4.00   4.00   0.00   0.00   0.00   0.00      0      0      0       0     287
 1990 311    91    88   18.0      3   3.53   3057   1277      0   3255   4334      0    0.0  0.000      0      0  0.000  0.000  0.047  0.000   2.08   0.00   0.00      0      0    115.3   0.00   0.00   0.86   2.83   4.00   4.00   4.00   4.00   4.00   0.00   0.00   0.00   0.00      0      0      0       0     303
 1990 312    92    89   19.0      3   3.56   3118   1359      0   3247   4477      0    0.0  0.000      0      0  0.000  0.000  0.051  0.000   2.03   0.00   0.00      0      0    114.3   0.00   0.00   0.87   2.84   4.00   4.00   3.99   3.99   3.99   0.00   0.00   0.00   0.00      0      0      0       0     319
 1990 313    93    90   19.0      3   3.69   3271   1481      0   3246   4752      0    0.0  0.000      0      0  0.000  0.000  0.058  0.000   1.93   0.00   0.00      0      0    112.8   0.00   0.00   0.88   2.89   4.00   4.00   4.00   3.99   3.98   0.00   0.00   0.00   0.00      0      0      0       0     336
 1990 314    94    91   19.0      3   3.80   3409   1641      0   3280   5050      0    0.0  0.000      0      0  0.000  0.000  0.060  0.000   1.83   0.00   0.00      0      0    111.4   0.00   0.00   0.89   3.06   4.00   4.00   4.00   4.00   4.00   0.00   0.00   0.00   0.00      0      0      0       0     352
 1990 315    95    92   20.0      3   3.89   3535   1823      0   3332   5358      0    0.0  0.000      0      0  0.000  0.000  0.069  0.000   1.73   0.00   0.00      0      0    109.9   0.00   0.00   0.91   3.30   4.00   4.00   4.00   4.00   4.00   0.00   0.00   0.00   0.00      0      0      0       0     368
 1990 316    96    93   20.0      3   3.92   3611   1950      0   3327   5562      0    0.0  0.000      0      0  0.000  0.000  0.080  0.000   1.68   0.00   0.00      0      0    108.6   0.00   0.00   0.92   3.32   4.00   4.00   3.99   3.99   3.99   0.03   0.00   0.00   0.00      0      0      0       0     385
 1990 317    97    94   20.0      3   4.00   3735   2193      0   3373   5928      0    0.0  0.000      0      0  0.000  0.000  0.088  0.000   1.59   0.00   0.00      0      0    107.0   0.00   0.00   0.94   3.44   4.00   4.00   4.00   4.00   4.00   0.32   0.00   0.00   0.00      0      0      0       0     402
 1990 318    98    95   21.0      3   4.03   3817   2375      0   3371   6191      0    0.0  0.000      0      0  0.000  0.000  0.091  0.000   1.55   0.00   0.00      0      0    105.5   0.00   0.00   0.96   3.45   4.00   4.00   3.99   3.99   3.99   0.40   0.00   0.00   0.00      0      0      0       0     418
 1990 319    99    96   21.0      3   4.02   3858   2474      0   3362   6332      0    0.0  0.000      0      0  0.000  0.000  0.100  0.000   1.54   0.00   0.00      0      0    104.1   0.00   0.00   0.97   3.44   3.99   3.99   3.98   3.97   3.97   0.45   0.00   0.00   0.00      0      0      0       0     435
 1990 320   100    97   21.0      3   4.01   3903   2587      0   3426   6491      0    0.0  0.000      0      0  0.000  0.000  0.105  0.000   1.53   0.00   0.00      0      0    102.7   0.00   0.00   0.98   3.57   4.00   4.00   4.00   4.00   4.00   0.91   0.00   0.00   0.00      0      0      0       0     452
 1990 321   101    98   22.0      3   4.00   3949   2707      0   3587   6657      0    0.0  0.000      0      0  0.000  0.000  0.104  0.000   1.51   0.00   0.00      0      0    101.2   0.00   0.00   0.99   3.87   4.00   4.00   4.00   4.00   4.00   1.93   0.00   0.00   0.00      0      0      0       0     469
 1990 322   102    99   22.0      3   4.01   4018   2895      0   3694   6913      0    0.0  0.000      0      0  0.000  0.000  0.103  0.003   1.47   0.00   0.00      0      0     99.8   0.00   0.00   1.00   4.00   4.00   4.00   4.00   4.00   4.00   2.65   0.00   0.00   0.00      0      0      0       0     487
 1990 323   103   100   22.0      3   4.04   4107   3139      0   3756   7246      0    0.0  0.000      0      0  0.000  0.000  0.102  0.000   1.42   0.00   0.00      0      0     98.4   0.00   0.00   1.02   4.00   4.00   4.00   4.00   4.00   4.00   3.11   0.00   0.00   0.00      0      0      0       0     506
 1990 324   104   101   22.0      3   4.04   4160   3285      0   3748   7445      0    0.0  0.000      0      0  0.000  0.000  0.106  0.000   1.40   0.00   0.00      0      0     97.1   0.00   0.00   1.04   4.00   4.00   4.00   3.99   3.99   3.99   3.16   0.00   0.00   0.00      0      0      0       0     524
 1990 325   105   102   22.0      3   4.05   4230   3474      0   3877   7703      0    0.0  0.000      0      0  0.000  0.000  0.113  0.000   1.36   0.00   0.00      0      0     95.7   0.00   0.00   1.05   4.00   4.00   4.00   4.00   4.00   4.00   3.97   0.00   0.00   0.00      0      0      0       0     543
 1990 326   106   103   22.0      3   4.04   4290   3636      0   3999   7926      0    0.0  0.000      0      0  0.000  0.000  0.115  0.000   1.34   0.00   0.00      0      0     94.3   0.00   0.00   1.06   4.00   4.00   4.00   4.00   4.00   4.00   4.00   0.00   0.00   0.00      0      0      0       0     562
 1990 327   107   104   22.0      3   4.04   4347   3791      0   4140   8138      0    0.0  0.000      0      0  0.000  0.000  0.120  0.000   1.32   0.00   0.00      0      0     92.8   0.00   0.00   1.08   4.00   4.00   4.00   4.00   4.00   4.00   4.00   0.00   0.00   0.00      0      0      0       0     582
 1990 328   108   105   22.0      3   4.03   4410   3962      0   4230   8373      0    0.0  0.000      0      0  0.000  0.000  0.122  0.000   1.29   0.00   0.00      0      0     91.4   0.00   0.00   1.09   4.00   4.00   4.00   4.00   4.00   4.00   4.00   0.00   0.00   0.00      0      0      0       0     603
 1990 329   109   106   22.0      4   3.97   4364   3367      0   4271   8560      0    0.0  0.000    828      0  0.000  0.000  0.124  0.000   1.41   0.00   0.10      0    828     91.0   0.00   0.00   1.10   4.00   4.00   4.00   4.00   4.00   4.00   4.00   0.05   0.00   0.00      0      0      0       0     624
 1990 330   110   107   22.0      4   3.91   4315   3420      0   4362   8694      0    0.0  0.000    959      0  0.000  0.000  0.126  0.000   1.42   0.00   0.11      0    959     90.5   0.00   0.00   1.11   4.00   4.00   4.00   4.00   4.00   4.00   4.00   0.18   0.00   0.00      0      0      0       0     646
 1990 331   111   108   22.0      4   3.86   4265   3455      0   4556   8768      0    0.0  0.000   1048      0  0.000  0.000  0.096  0.000   1.43   0.00   0.12      0   1048     90.5   0.00   0.00   1.11   4.00   4.00   4.00   4.00   4.00   4.00   4.00   0.50   0.00   0.00      0      0      0       0     667
 1990 332   112   109   22.0      4   3.82   4213   3497      0   4744   8862      0    0.0  0.000   1152      0  0.000  0.000  0.091  0.000   1.45   0.00   0.13      0   1152     90.6   0.00   0.00   1.12   4.00   4.00   4.00   4.00   4.00   4.00   4.00   0.87   0.00   0.00      0      0      0       0     690
 1990 333   113   110   22.0      4   3.78   4158   3553      0   4909   9005      0    0.0  0.000   1294      0  0.000  0.000  0.085  0.000   1.46   0.00   0.14      0   1294     90.8   0.00   0.00   1.13   4.00   4.00   4.00   4.00   4.00   4.00   4.00   1.24   0.00   0.00      0      0      0       0     714
 1990 334   114   111   22.0      4   3.74   4101   3617      0   4911   9170      0    0.0  0.000   1453      0  0.000  0.000  0.079  0.000   1.47   0.00   0.16      0   1453     91.2   0.00   0.00   1.14   4.00   4.00   4.00   4.00   4.00   4.00   4.00   1.30   0.00   0.00      0      0      0       0     739
 1990 335   115   112   22.0      4   3.70   4041   3680      0   4995   9331      0    0.0  0.000   1610      0  0.000  0.000  0.074  0.000   1.48   0.00   0.17      0   1610     91.7   0.00   0.00   1.15   4.00   4.00   4.00   4.00   4.00   4.00   4.00   1.54   0.00   0.00      0      0      0       0     763
 1990 336   116   113   22.0      4   3.67   3978   3724      0   4977   9423      0    0.0  0.000   1721      0  0.000  0.000  0.070  0.000   1.49   0.00   0.18      0   1721     92.3   0.00   0.00   1.15   4.00   4.00   4.00   3.99   3.99   3.98   3.98   1.54   0.00   0.00      0      0      0       0     788
 1990 337   117   114   22.0      4   3.64   3914   3771      0   5152   9524      0    0.0  0.000   1839      0  0.000  0.000  0.066  0.000   1.50   0.00   0.19      0   1839     93.0   0.00   0.00   1.16   4.00   4.00   4.00   4.00   4.00   4.00   4.00   2.00   0.00   0.00      0      0      0       0     813
 1990 338   118   115   22.0      4   3.61   3847   3830      0   5294   9662      0    0.0  0.000   1985      0  0.000  0.000  0.061  0.000   1.51   0.00   0.21      0   1985     93.9   0.00   0.00   1.17   4.00   4.00   4.00   4.00   4.00   4.00   4.00   2.37   0.00   0.00      0      0      0       0     839
 1990 339   119   116   22.0      4   3.59   3776   3914      0   5281   9884      0    0.0  0.000   2194      0  0.000  0.000  0.056  0.000   1.51   0.00   0.22      0   2194     95.0   0.00   0.00   1.18   4.00   4.00   4.00   3.99   3.99   3.99   3.99   2.39   0.00   0.00      0      0      0       0     865
 1990 340   120   117   22.0      4   3.57   3703   3986      0   5287  10065      0    0.0  0.000   2376      0  0.000  0.000  0.051  0.000   1.52   0.00   0.24      0   2376     96.3   0.00   0.00   1.19   4.00   4.00   4.00   4.00   4.00   4.00   3.99   2.45   0.00   0.00      0      0      0       0     892
 1990 341   121   118   22.0      4   3.54   3626   4055      0   5397  10228      0    0.0  0.000   2547      0  0.000  0.000  0.048  0.000   1.53   0.00   0.25      0   2547     97.7   0.00   0.00   1.20   4.00   4.00   4.00   4.00   4.00   4.00   4.00   2.74   0.00   0.00      0      0      0       0     918
 1990 342   122   119   22.0      4   3.52   3548   4112      0   5559  10350      0    0.0  0.000   2690      0  0.000  0.000  0.045  0.061   1.54   0.00   0.26      0   2690     99.3   0.00   0.00   1.21   4.00   4.00   4.00   4.00   4.00   4.00   4.00   3.14   0.00   0.00      0      0      0       0     945
 1990 343   123   120   22.0      5   3.49   3548   4112    152   5535  10502   3687    4.1  0.014   2842      7  0.000  0.000  0.077  0.086   1.51   5.34   0.27      0   2842     98.4   0.00   0.00   1.21   3.99   3.99   3.99   3.98   3.98   3.98   3.98   3.13   0.00   0.00      0      0      0       0     973
 1990 344   124   121   22.0      5   3.45   3548   4110    320   5507  10669   3687    8.7  0.030   3011      7  0.000  0.000  0.082  0.416   1.49  10.64   0.28      0   3011     97.4   0.00   0.00   1.21   3.99   3.99   3.99   3.98   3.98   3.98   3.98   3.13   0.00   0.00      0      0      0       0    1000
 1990 345   125   122   22.0      5   3.42   3548   4112    537   5538  10888   3687   14.6  0.049   3228      7  0.000  0.000  0.085  0.229   1.45  16.65   0.30      0   3228     96.3   0.00   0.00   1.22   4.00   4.00   4.00   4.00   4.00   3.99   3.97   3.10   0.00   0.00      0      0      0       0    1028
 1990 346   126   123   22.0      5   3.38   3548   4112    673   5543  11024   3687   18.3  0.061   3364      7  0.000  0.000  0.092  0.127   1.43  20.02   0.31      0   3364     95.2   0.00   0.00   1.23   4.00   4.00   4.00   4.00   4.00   4.00   3.97   3.10   0.00   0.00      0      0      0       0    1056
 1990 347   127   124   22.0      5   3.34   3548   4112    874   5550  11225   3687   23.7  0.078   3565      7  0.000  0.000  0.094  0.047   1.40  24.53   0.32      0   3565     94.1   0.00   0.00   1.23   4.00   4.00   4.00   4.00   4.00   4.00   3.98   3.09   0.00   0.00      0      0      0       0    1083
 1990 348   128   125   22.0      5   3.30   3548   4112   1007   5620  11357   3687   27.3  0.089   3697      7  0.000  0.000  0.100  0.006   1.38  27.24   0.33      0   3697     92.9   0.00   0.00   1.24   4.00   4.00   4.00   4.00   4.00   4.00   4.00   3.11   0.00   0.00      0      0      0       0    1111
 1990 349   129   126   22.0      5   3.26   3548   4112   1207   5683  11557   3687   32.7  0.104   3898      7  0.000  0.000  0.100  0.000   1.35  30.97   0.34      0   3898     91.8   0.00   0.00   1.25   4.00   4.00   4.00   4.00   4.00   4.00   4.00   3.13   0.00   0.00      0      0      0       0    1139
 1990 350   130   127   22.0      5   3.21   3548   4112   1471   5715  11822   3687   39.9  0.124   4162      7  0.000  0.000  0.103  0.000   1.31  35.35   0.35      0   4162     90.6   0.00   0.00   1.25   4.00   4.00   4.00   4.00   4.00   4.00   4.00   3.14   0.00   0.00      0      0      0       0    1168
 1990 351   131   128   22.0      5   3.17   3548   4088   1748   5687  12074   3687   47.4  0.145   4438      7  0.000  0.000  0.110  0.000   1.27  39.38   0.37      0   4438     89.3   0.00   0.00   1.25   4.00   4.00   4.00   4.00   4.00   4.00   4.00   3.14   0.00   0.00      0      0      0       0    1196
 1990 352   132   129   22.0      5   3.12   3548   4112   2001   5714  12351   3687   54.3  0.162   4691      7  0.000  0.000  0.118  0.000   1.23  42.65   0.38      0   4691     88.0   0.00   0.00   1.25   4.00   4.00   4.00   4.00   4.00   4.00   4.00   3.15   0.00   0.00      0      0      0       0    1225
 1990 353   133   130   22.0      5   3.07   3548   4112   2221   5765  12571   3687   60.2  0.177   4911      7  0.000  0.000  0.124  0.000   1.19  45.22   0.39      0   4911     86.7   0.00   0.00   1.25   4.00   4.00   4.00   4.00   4.00   4.00   4.00   3.16   0.00   0.00      0      0      0       0    1253
 1990 354   134   131   22.0      5   3.02   3548   4112   2454   5812  12804   3687   66.6  0.192   5144      7  0.000  0.000  0.132  0.021   1.16  47.70   0.40      0   5144     85.2   0.00   0.00   1.25   4.00   4.00   4.00   4.00   4.00   4.00   4.00   3.18   0.00   0.00      0      0      0       0    1282
 1990 355   135   132   22.0      5   2.97   3548   4112   2730   5821  13080   3687   74.1  0.209   5421      7  0.000  0.000  0.137  0.001   1.12  50.37   0.41      0   5421     83.8   0.00   0.00   1.25   4.00   4.00   4.00   4.00   4.00   4.00   4.00   3.18   0.00   0.00      0      0      0       0    1311
 1990 356   136   133   22.0      5   2.92   3548   4005   3003   5792  13246   3687   81.5  0.227   5694      7  0.000  0.000  0.145  0.073   1.10  52.75   0.43      0   5694     82.3   0.00   0.00   1.25   4.00   4.00   4.00   4.00   4.00   4.00   4.00   3.18   0.00   0.00      0      0      0       0    1340
 1990 357   137   134   22.0      5   2.86   3548   4026   3280   5773  13544   3687   89.0  0.242   5970      7  0.000  0.000  0.153  0.047   1.06  54.94   0.44      0   5970     80.7   0.00   0.00   1.25   4.00   4.00   4.00   3.99   3.99   3.99   3.99   3.16   0.00   0.00      0      0      0       0    1369
 1990 358   138   135   22.0      5   2.81   3548   4019   3499   5745  13756   3687   94.9  0.254   6189      7  0.000  0.000  0.158  0.332   1.03  56.53   0.45      0   6189     79.1   0.00   0.00   1.25   4.00   4.00   4.00   3.99   3.99   3.99   3.99   3.16   0.00   0.00      0      0      0       0    1398
 1990 359   139   136   22.0      5   2.75   3548   4112   3701   5782  14052   3687  100.4  0.263   6392      7  0.000  0.000  0.166  0.152   0.99  57.91   0.45      0   6392     77.4   0.00   0.00   1.25   4.00   4.00   4.00   4.00   4.00   4.00   4.00   3.17   0.00   0.00      0      0      0       0    1427
 1990 360   140   137   22.0      5   2.69   3548   4112   3978   5808  14328   3687  107.9  0.278   6668      7  0.000  0.000  0.170  0.048   0.96  59.65   0.47      0   6668     75.8   0.00   0.00   1.25   4.00   4.00   4.00   4.00   4.00   4.00   4.00   3.18   0.00   0.00      0      0      0       0    1456
 1990 361   141   138   22.0      5   2.63   3548   4112   4254   5832  14605   3687  115.4  0.291   6945      7  0.000  0.000  0.183  0.006   0.93  61.26   0.48      0   6945     74.1   0.00   0.00   1.25   4.00   4.00   4.00   4.00   4.00   4.00   4.00   3.18   0.00   0.00      0      0      0       0    1485
 1990 362   142   139   22.0      5   2.56   3548   4112   4411   5883  14761   3687  119.6  0.299   7101      7  0.000  0.000  0.193  0.000   0.92  62.11   0.48      0   7101     72.3   0.00   0.00   1.25   4.00   4.00   4.00   4.00   4.00   4.00   4.00   3.20   0.00   0.00      0      0      0       0    1514
 1990 363   143   140   22.0      5   2.50   3548   4112   4549   5930  14899   3687  123.4  0.305   7239      7  0.000  0.000  0.196  0.000   0.90  62.84   0.49      0   7239     70.5   0.00   0.00   1.25   4.00   4.00   4.00   4.00   4.00   4.00   4.00   3.21   0.00   0.00      0      0      0       0    1543
 1990 364   144   141   22.0      5   2.44   3548   4112   4753   5964  15104   3687  128.9  0.315   7444      7  0.000  0.000  0.197  0.000   0.88  63.86   0.49      0   7444     68.8   0.00   0.00   1.25   4.00   4.00   4.00   4.00   4.00   4.00   4.00   3.22   0.00   0.00      0      0      0       0    1573
 1990 365   145   142   22.0      5   2.38   3548   4112   5021   5983  15371   3687  136.2  0.327   7711      7  0.000  0.000  0.205  0.000   0.85  65.11   0.50      0   7711     67.0   0.00   0.00   1.25   4.00   4.00   4.00   4.00   4.00   4.00   4.00   3.23   0.00   0.00      0      0      0       0    1603
 1991 001   146   143   22.0      5   2.32   3548   4112   5297   5969  15648   3687  143.7  0.339   7988      7  0.000  0.000  0.229  0.000   0.82  66.32   0.51      0   7988     65.3   0.00   0.00   1.25   4.00   4.00   4.00   4.00   4.00   4.00   3.99   3.22   0.00   0.00      0      0      0       0    1633
 1991 002   147   144   22.0      5   2.25   3548   4112   5574   5952  15924   3687  151.2  0.350   8264      7  0.000  0.000  0.255  0.000   0.79  67.45   0.52      0   8264     63.5   0.00   0.00   1.25   4.00   4.00   4.00   4.00   4.00   3.99   3.98   3.20   0.00   0.00      0      0      0       0    1663
 1991 003   148   145   22.0      5   2.19   3548   4112   5850   5939  16201   3687  158.7  0.361   8541      7  0.000  0.000  0.284  0.000   0.77  68.50   0.53      0   8541     61.7   0.00   0.00   1.25   4.00   4.00   4.00   4.00   4.00   3.99   3.97   3.19   0.00   0.00      0      0      0       0    1692
 1991 004   149   146   22.0      5   2.12   3548   4112   6093   5944  16444   3687  165.3  0.371   8784      7  0.000  0.000  0.314  0.000   0.74  69.37   0.53      0   8784     59.9   0.00   0.00   1.25   4.00   4.00   4.00   4.00   4.00   4.00   3.98   3.19   0.00   0.00      0      0      0       0    1722
 1991 005   150   147   22.0      5   2.06   3548   4112   6336   5945  16686   3687  171.9  0.380   9026      7  0.000  0.000  0.337  0.000   0.72  70.19   0.54      0   9026     58.0   0.00   0.00   1.25   4.00   4.00   4.00   4.00   4.00   4.00   3.98   3.19   0.00   0.00      0      0      0       0    1752
 1991 006   151   148   22.0      5   1.99   3548   4112   6592   5939  16943   3687  178.8  0.389   9283      7  0.000  0.000  0.359  0.000   0.70  71.02   0.55      0   9283     56.2   0.00   0.00   1.25   4.00   4.00   4.00   4.00   4.00   4.00   3.98   3.18   0.00   0.00      0      0      0       0    1781
 1991 007   152   149   22.0      5   1.93   3548   4112   6869   5919  17219   3687  186.3  0.399   9559      7  0.000  0.000  0.383  0.000   0.68  71.86   0.56      0   9559     54.4   0.00   0.00   1.25   4.00   4.00   4.00   3.99   3.99   3.99   3.97   3.17   0.00   0.00      0      0      0       0    1811
 1991 008   153   150   22.0      5   1.86   3548   4112   7145   5895  17496   3687  193.8  0.408   9836      7  0.000  0.000  0.409  0.000   0.65  72.65   0.56      0   9836     52.5   0.00   0.00   1.25   4.00   4.00   4.00   3.98   3.98   3.98   3.95   3.15   0.00   0.00      0      0      0       0    1841
 1991 009   154   151   22.0      5   1.80   3548   3929   7422   5866  17589   3687  201.3  0.422  10112      7  0.000  0.000  0.440  0.000   0.65  73.39   0.57      0  10112     50.7   0.00   0.00   1.25   4.00   4.00   4.00   3.98   3.98   3.98   3.95   3.15   0.00   0.00      0      0      0       0    1870
 1991 010   155   152   22.0      5   1.73   3548   3897   7698   5836  17833   3687  208.8  0.432  10389      7  0.000  0.000  0.470  0.013   0.63  74.10   0.58      0  10389     48.8   0.00   0.00   1.25   4.00   4.00   4.00   3.98   3.98   3.98   3.95   3.15   0.00   0.00      0      0      0       0    1900
 1991 011   156   153   22.0      5   1.67   3548   3852   7960   5807  18050   3687  215.9  0.441  10651      7  0.000  0.000  0.469  0.000   0.61  74.74   0.59      0  10651     47.1   0.00   0.00   1.25   4.00   4.00   4.00   3.98   3.98   3.98   3.95   3.15   0.00   0.00      0      0      0       0    1929
 1991 012   157   154   22.0      5   1.61   3548   3865   8174   5784  18277   3687  221.7  0.447  10864      7  0.000  0.000  0.494  0.000   0.60  75.24   0.59      0  10864     45.3   0.00   0.00   1.25   4.00   4.00   4.00   3.97   3.97   3.96   3.94   3.14   0.00   0.00      0      0      0       0    1958
 1991 013   158   155   22.0      5   1.55   3548   3796   8393   5756  18427   3687  227.7  0.455  11083      7  0.000  0.000  0.504  0.000   0.59  75.73   0.60      0  11083     43.6   0.00   0.00   1.25   4.00   4.00   4.00   3.97   3.97   3.96   3.94   3.14   0.00   0.00      0      0      0       0    1987
 1991 014   159   156   22.0      5   1.49   3548   3770   8643   5727  18650   3687  234.4  0.463  11333      7  0.000  0.000  0.527  0.000   0.58  76.26   0.61      0  11333     41.9   0.00   0.00   1.25   4.00   4.00   4.00   3.97   3.97   3.96   3.94   3.14   0.00   0.00      0      0      0       0    2015
 1991 015   160   157   22.0      5   1.43   3548   3701   8919   5698  18859   3687  241.9  0.473  11609      7  0.000  0.000  0.541  0.000   0.56  76.83   0.62      0  11609     40.3   0.00   0.00   1.25   4.00   4.00   4.00   3.97   3.97   3.96   3.94   3.14   0.00   0.00      0      0      0       0    2044
 1991 016   161   158   22.0      5   1.37   3548   3673   9089   5670  19000   3687  246.5  0.478  11779      7  0.000  0.000  0.571  0.000   0.56  77.16   0.62      0  11779     38.7   0.00   0.00   1.25   4.00   4.00   4.00   3.97   3.97   3.96   3.94   3.14   0.00   0.00      0      0      0       0    2073
 1991 017   162   159   22.0      5   1.32   3548   3705   9214   5657  19156   3687  249.9  0.481  11904      7  0.000  0.000  0.573  0.000   0.55  77.40   0.62      0  11904     37.1   0.00   0.00   1.25   4.00   4.00   4.00   3.97   3.97   3.96   3.93   3.13   0.00   0.00      0      0      0       0    2101
 1991 018   163   160   22.0      5   1.26   3548   3686   9419   5629  19343   3687  255.5  0.487  12110      7  0.000  0.000  0.572  0.000   0.54  77.78   0.63      0  12110     35.6   0.00   0.00   1.25   4.00   4.00   4.00   3.97   3.97   3.96   3.93   3.13   0.00   0.00      0      0      0       0    2129
 1991 019   164   161   22.0      5   1.21   3548   3604   9655   5601  19497   3687  261.9  0.495  12346      7  0.000  0.000  0.602  0.000   0.54  78.21   0.63      0  12346     34.1   0.00   0.00   1.25   4.00   4.00   4.00   3.97   3.97   3.96   3.93   3.13   0.00   0.00      0      0      0       0    2157
 1991 020   165   162   22.0      5   1.21   3548   3604   9655   5601  19497   3687  261.9  0.495  12346      7  0.000  0.000  0.602  0.000   0.54  78.21   0.63      0  12346     34.1   0.00   0.00   1.25   4.00   4.00   4.00   3.97   3.97   3.96   3.93   3.13   0.00   0.00      0      0      0       0    2157
 1991 021   166   163   22.0      5   1.21   3548   3604   9655   5601  19497   3687  261.9  0.495  12346      7  0.000  0.000  0.602  0.000   0.54  78.21   0.63      0  12346     34.1   0.00   0.00   1.25   4.00   4.00   4.00   3.97   3.97   3.96   3.93   3.13   0.00   0.00      0      0      0       0    2157
 1991 022   167   164   22.0      5   1.21   3548   3604   9655   5601  19497   3687  261.9  0.495  12346      7  0.000  0.000  0.602  0.000   0.54  78.21   0.63      0  12346     34.1   0.00   0.00   1.25   4.00   4.00   4.00   3.97   3.97   3.96   3.93   3.13   0.00   0.00      0      0      0       0    2157

*DSSAT Cropping System Model Ver. 4.0.2.000               Aug 11, 2016; 19:59:17

*RUN   2        : UYMZ                    
 MODEL          : MZCER040 - Maize           
 EXPERIMENT     : UYMZ0147 MZ    late to create DSS                             
 TREATMENT  1   : UYMZ                    

@YEAR DOY   DAS   DAP   L#SD   GSTD   LAID   LWAD   SWAD   GWAD   RWAD   CWAD   G#AD   GWGD   HIAD   PWAD   P#AD   WSPD   WSGD   NSTD   EWSD   LN%D   SH%D   HIPD   PWDD   PWTD     SLAD   CHTD   CWID   RDPD   RL1D   RL2D   RL3D   RL4D   RL5D   RL6D   RL7D   RL8D   RL9D   RL10   CDAD   LDAD   SDAD   SNW0C   SNW1C
 1991 223     3     0    0.0      0   0.00      0      0      0      0      0      0    0.0  0.000      0      0  0.000  0.000  0.000  0.000   0.00   0.00   0.00      0      0      0.0   0.00   0.00   0.03   0.00   0.00   0.00   0.00   0.00   0.00   0.00   0.00   0.00   0.00      0      0      0       0       0
 1991 224     4     1    0.0      0   0.00      0      0      0      0      0      0    0.0  0.000      0      0  0.000  0.000  0.000  0.000   0.00   0.00   0.00      0      0      0.0   0.00   0.00   0.03   0.00   0.00   0.00   0.00   0.00   0.00   0.00   0.00   0.00   0.00      0      0      0       0       0
 1991 225     5     2    0.0      0   0.00      0      0      0      0      0      0    0.0  0.000      0      0  0.000  0.000  0.000  0.000   0.00   0.00   0.00      0      0      0.0   0.00   0.00   0.04   0.00   0.00   0.00   0.00   0.00   0.00   0.00   0.00   0.00   0.00      0      0      0       0       0
 1991 226     6     3    0.0      0   0.00      0      0      0      0      0      0    0.0  0.000      0      0  0.000  0.000  0.000  0.000   0.00   0.00   0.00      0      0      0.0   0.00   0.00   0.05   0.00   0.00   0.00   0.00   0.00   0.00   0.00   0.00   0.00   0.00      0      0      0       0       0
 1991 227     7     4    0.0      0   0.00      0      0      0      0      0      0    0.0  0.000      0      0  0.000  0.000  0.000  0.000   0.00   0.00   0.00      0      0      0.0   0.00   0.00   0.07   0.00   0.00   0.00   0.00   0.00   0.00   0.00   0.00   0.00   0.00      0      0      0       0       0
 1991 228     8     5    0.0      0   0.00      0      0      0      0      0      0    0.0  0.000      0      0  0.000  0.000  0.000  0.000   0.00   0.00   0.00      0      0      0.0   0.00   0.00   0.09   0.00   0.00   0.00   0.00   0.00   0.00   0.00   0.00   0.00   0.00      0      0      0       0       0
 1991 229     9     6    0.0      0   0.00      0      0      0      0      0      0    0.0  0.000      0      0  0.000  0.000  0.000  0.000   0.00   0.00   0.00      0      0      0.0   0.00   0.00   0.11   0.00   0.00   0.00   0.00   0.00   0.00   0.00   0.00   0.00   0.00      0      0      0       0       0
 1991 230    10     7    1.0      1   0.00     14     14      0     14     28      0    0.0  0.000      0      0  0.000  0.000  0.012  0.000   4.40   0.00   0.00      0      0     20.5   0.00   0.00   0.12   0.28   0.08   0.00   0.00   0.00   0.00   0.00   0.00   0.00   0.00      0      0      0       0       0
 1991 231    11     8    2.0      1   0.01     14     14      0     14     28      0    0.0  0.000      0      0  0.000  0.000  0.016  0.000   4.53   0.00   0.00      0      0     38.8   0.00   0.00   0.13   0.28   0.08   0.00   0.00   0.00   0.00   0.00   0.00   0.00   0.00      0      0      0       0       0
 1991 232    12     9    2.0      1   0.01     14     14      0     15     28      0    0.0  0.000      0      0  0.000  0.000  0.000  0.000   4.53   0.00   0.00      0      0     59.7   0.00   0.00   0.14   0.28   0.09   0.00   0.00   0.00   0.00   0.00   0.00   0.00   0.00      0      0      0       0       0
 1991 233    13    10    3.0      1   0.01     14     14      0     16     28      0    0.0  0.000      0      0  0.000  0.000  0.000  0.000   4.47   0.00   0.00      0      0     83.4   0.00   0.00   0.15   0.29   0.10   0.00   0.00   0.00   0.00   0.00   0.00   0.00   0.00      0      0      0       0       0
 1991 234    14    11    3.0      1   0.02     14     14      0     17     28      0    0.0  0.000      0      0  0.000  0.000  0.000  0.000   4.44   0.00   0.00      0      0    112.8   0.00   0.00   0.17   0.31   0.12   0.00   0.00   0.00   0.00   0.00   0.00   0.00   0.00      0      0      0       0       0
 1991 235    15    12    3.0      1   0.02     14     14      0     19     28      0    0.0  0.000      0      0  0.000  0.000  0.000  0.000   4.41   0.00   0.00      0      0    137.8   0.00   0.00   0.18   0.33   0.15   0.01   0.00   0.00   0.00   0.00   0.00   0.00   0.00      0      0      0       0       0
 1991 236    16    13    4.0      1   0.03     14     14      0     22     28      0    0.0  0.000      0      0  0.000  0.000  0.000  0.000   4.39   0.00   0.00      0      0    197.6   0.00   0.00   0.18   0.35   0.18   0.01   0.00   0.00   0.00   0.00   0.00   0.00   0.00      0      0      0       0       0
 1991 237    17    14    4.0      1   0.04     14     14      0     25     28      0    0.0  0.000      0      0  0.000  0.000  0.000  0.000   4.37   0.00   0.00      0      0    288.1   0.00   0.00   0.20   0.38   0.21   0.03   0.00   0.00   0.00   0.00   0.00   0.00   0.00      0      0      0       0       0
 1991 238    18    15    4.0      1   0.05     14     14      0     27     28      0    0.0  0.000      0      0  0.000  0.000  0.000  0.000   4.37   0.00   0.00      0      0    343.3   0.00   0.00   0.20   0.39   0.23   0.03   0.00   0.00   0.00   0.00   0.00   0.00   0.00      0      0      0       0       0
 1991 239    19    16    4.0      1   0.05     17     14      0     27     31      0    0.0  0.000      0      0  0.000  0.000  0.000  0.000   4.00   0.00   0.00      0      0    331.8   0.00   0.00   0.21   0.40   0.23   0.03   0.00   0.00   0.00   0.00   0.00   0.00   0.00      0      0      0       0       0
 1991 240    20    17    4.0      1   0.07     22     14      0     30     36      0    0.0  0.000      0      0  0.000  0.000  0.000  0.000   3.70   0.00   0.00      0      0    314.3   0.00   0.00   0.22   0.41   0.25   0.04   0.00   0.00   0.00   0.00   0.00   0.00   0.00      0      0      0       0       1
 1991 241    21    18    5.0      1   0.09     29     14      0     33     43      0    0.0  0.000      0      0  0.000  0.000  0.000  0.000   3.57   0.00   0.00      0      0    296.6   0.00   0.00   0.23   0.43   0.28   0.05   0.00   0.00   0.00   0.00   0.00   0.00   0.00      0      0      0       0       1
 1991 242    22    19    5.0      1   0.11     38     14      0     34     52      0    0.0  0.000      0      0  0.000  0.000  0.000  0.000   3.49   0.00   0.00      0      0    280.1   0.00   0.00   0.24   0.44   0.28   0.06   0.00   0.00   0.00   0.00   0.00   0.00   0.00      0      0      0       0       1
 1991 243    23    20    5.0      1   0.12     43     14      0     36     57      0    0.0  0.000      0      0  0.000  0.000  0.000  0.000   3.88   0.00   0.00      0      0    273.3   0.00   0.00   0.25   0.45   0.30   0.07   0.00   0.00   0.00   0.00   0.00   0.00   0.00      0      0      0       0       1
 1991 244    24    21    5.0      1   0.13     47     14      0     41     61      0    0.0  0.000      0      0  0.000  0.000  0.000  0.000   3.97   0.00   0.00      0      0    268.7   0.00   0.00   0.25   0.48   0.34   0.10   0.00   0.00   0.00   0.00   0.00   0.00   0.00      0      0      0       0       1
 1991 245    25    22    6.0      1   0.14     53     14      0     43     67      0    0.0  0.000      0      0  0.000  0.000  0.000  0.000   3.83   0.00   0.00      0      0    262.1   0.00   0.00   0.26   0.49   0.36   0.11   0.00   0.00   0.00   0.00   0.00   0.00   0.00      0      0      0       0       1
 1991 246    26    23    6.0      1   0.16     64     14      0     49     78      0    0.0  0.000      0      0  0.000  0.000  0.000  0.000   3.60   0.00   0.00      0      0    252.1   0.00   0.00   0.27   0.52   0.41   0.15   0.00   0.00   0.00   0.00   0.00   0.00   0.00      0      0      0       0       2
 1991 247    27    24    6.0      1   0.19     79     14      0     66     93      0    0.0  0.000      0      0  0.000  0.000  0.000  0.000   3.50   0.00   0.00      0      0    241.6   0.00   0.00   0.28   0.61   0.53   0.26   0.00   0.00   0.00   0.00   0.00   0.00   0.00      0      0      0       0       2
 1991 248    28    25    6.0      1   0.22     97     14      0     85    111      0    0.0  0.000      0      0  0.000  0.000  0.000  0.000   3.44   0.00   0.00      0      0    231.3   0.00   0.00   0.29   0.71   0.66   0.39   0.00   0.00   0.00   0.00   0.00   0.00   0.00      0      0      0       0       2
 1991 249    29    26    7.0      1   0.26    115     14      0     88    129      0    0.0  0.000      0      0  0.000  0.000  0.000  0.000   3.55   0.00   0.00      0      0    223.5   0.00   0.00   0.30   0.72   0.67   0.41   0.00   0.00   0.00   0.00   0.00   0.00   0.00      0      0      0       0       3
 1991 250    30    27    7.0      1   0.28    126     14      0     92    140      0    0.0  0.000      0      0  0.000  0.000  0.000  0.000   3.75   0.00   0.00      0      0    219.1   0.00   0.00   0.31   0.74   0.70   0.44   0.00   0.00   0.00   0.00   0.00   0.00   0.00      0      0      0       0       3
 1991 251    31    28    7.0      1   0.29    137     14      0     99    151      0    0.0  0.000      0      0  0.000  0.000  0.000  0.000   3.79   0.00   0.00      0      0    215.6   0.00   0.00   0.31   0.77   0.75   0.49   0.00   0.00   0.00   0.00   0.00   0.00   0.00      0      0      0       0       4
 1991 252    32    29    7.0      1   0.32    150     14      0    128    164      0    0.0  0.000      0      0  0.000  0.000  0.000  0.000   3.74   0.00   0.00      0      0    211.6   0.00   0.00   0.32   0.90   0.94   0.69   0.01   0.00   0.00   0.00   0.00   0.00   0.00      0      0      0       0       4
 1991 253    33    30    8.0      1   0.35    168     14      0    162    182      0    0.0  0.000      0      0  0.000  0.000  0.000  0.000   3.63   0.00   0.00      0      0    206.6   0.00   0.00   0.33   1.05   1.15   0.92   0.03   0.00   0.00   0.00   0.00   0.00   0.00      0      0      0       0       5
 1991 254    34    31    8.0      1   0.39    192     14      0    203    206      0    0.0  0.000      0      0  0.000  0.000  0.000  0.000   3.53   0.00   0.00      0      0    200.8   0.00   0.00   0.34   1.23   1.41   1.19   0.05   0.00   0.00   0.00   0.00   0.00   0.00      0      0      0       0       6
 1991 255    35    32    8.0      1   0.44    228     14      0    242    242      0    0.0  0.000      0      0  0.000  0.000  0.000  0.000   3.40   0.00   0.00      0      0    193.9   0.00   0.00   0.36   1.39   1.65   1.45   0.09   0.00   0.00   0.00   0.00   0.00   0.00      0      0      0       0       7
 1991 256    36    33    9.0      1   0.51    274     14      0    268    288      0    0.0  0.000      0      0  0.000  0.000  0.000  0.000   3.31   0.00   0.00      0      0    186.6   0.00   0.00   0.38   1.50   1.81   1.61   0.13   0.00   0.00   0.00   0.00   0.00   0.00      0      0      0       0       8
 1991 257    37    34    9.0      1   0.54    294     14      0    278    308      0    0.0  0.000      0      0  0.000  0.000  0.000  0.000   3.67   0.00   0.00      0      0    183.9   0.00   0.00   0.39   1.54   1.87   1.68   0.14   0.00   0.00   0.00   0.00   0.00   0.00      0      0      0       0       9
 1991 258    38    35    9.0      1   0.55    301     14      0    284    315      0    0.0  0.000      0      0  0.000  0.000  0.000  0.000   3.83   0.00   0.00      0      0    183.0   0.00   0.00   0.39   1.54   1.90   1.72   0.15   0.00   0.00   0.00   0.00   0.00   0.00      0      0      0       0      10
 1991 259    39    36    9.0      1   0.60    335     14      0    309    349      0    0.0  0.000      0      0  0.000  0.000  0.000  0.000   3.51   0.00   0.00      0      0    178.9   0.00   0.00   0.41   1.57   2.04   1.89   0.20   0.00   0.00   0.00   0.00   0.00   0.00      0      0      0       0      12
 1991 260    40    37    9.0      2   0.63    331     14      0    335    345      0    0.0  0.000      0      0  0.000  0.000  0.000  0.471   3.92   0.00   0.00      0      0    191.4   0.00   0.00   0.42   1.49   2.06   1.96   0.25   0.00   0.00   0.00   0.00   0.00   0.00      0      0      0       0      13
 1991 261    41    38   10.0      2   0.66    350     14      0    405    364      0    0.0  0.000      0      0  0.000  0.000  0.003  0.474   3.69   0.00   0.00      0      0    189.2   0.00   0.00   0.43   1.41   2.22   2.35   0.43   0.00   0.00   0.00   0.00   0.00   0.00      0      0      0       0      15
 1991 262    42    39   10.0      2   0.69    370     14      0    478    384      0    0.0  0.000      0      0  0.000  0.000  0.000  0.201   3.62   0.00   0.00      0      0    187.0   0.00   0.00   0.44   1.37   2.45   2.81   0.62   0.00   0.00   0.00   0.00   0.00   0.00      0      0      0       0      17
 1991 263    43    40   10.0      2   0.74    404     14      0    518    418      0    0.0  0.000      0      0  0.000  0.000  0.000  0.071   3.78   0.00   0.00      0      0    183.6   0.00   0.00   0.45   1.35   2.57   3.07   0.74   0.00   0.00   0.00   0.00   0.00   0.00      0      0      0       0      20
 1991 264    44    41   10.0      3   0.82    462     14      0    540    476      0    0.0  0.000      0      0  0.000  0.000  0.022  0.003   3.68   0.00   0.00      0      0    177.5   0.00   0.00   0.47   1.33   2.61   3.18   0.80   0.01   0.00   0.00   0.00   0.00   0.00      0      0      0       0      22
 1991 265    45    42   10.0      3   0.88    502     14      0    623    516      0    0.0  0.000      0      0  0.000  0.000  0.022  0.000   3.58   0.00   0.00      0      0    174.4   0.00   0.00   0.48   1.31   2.89   3.74   1.04   0.05   0.00   0.00   0.00   0.00   0.00      0      0      0       0      25
 1991 266    46    43   11.0      3   0.83    518     14      0    697    533      0    0.0  0.000      0      0  0.000  0.000  0.022  0.000   3.61   0.00   0.00      0      0    159.8   0.00   0.00   0.48   1.32   3.14   4.00   1.26   0.09   0.00   0.00   0.00   0.00   0.00      0      0      0       0      28
 1991 267    47    44   11.0      3   0.85    542     15      0    789    557      0    0.0  0.000      0      0  0.000  0.000  0.022  0.001   3.56   0.00   0.00      0      0    157.2   0.00   0.00   0.49   1.33   3.44   4.00   1.53   0.15   0.00   0.00   0.00   0.00   0.00      0      0      0       0      31
 1991 268    48    45   11.0      3   0.90    579     15      0    874    595      0    0.0  0.000      0      0  0.000  0.000  0.022  0.001   3.53   0.00   0.00      0      0    155.7   0.00   0.00   0.50   1.36   3.72   4.00   1.79   0.22   0.00   0.00   0.00   0.00   0.00      0      0      0       0      35
 1991 269    49    46   11.0      3   0.96    623     16      0    968    639      0    0.0  0.000      0      0  0.000  0.000  0.022  0.001   3.51   0.00   0.00      0      0    154.1   0.00   0.00   0.51   1.41   4.00   4.00   2.06   0.31   0.00   0.00   0.00   0.00   0.00      0      0      0       0      40
 1991 270    50    47   11.0      3   1.06    701     19      0   1025    720      0    0.0  0.000      0      0  0.000  0.000  0.022  0.000   3.47   0.00   0.00      0      0    151.7   0.00   0.00   0.52   1.43   4.00   4.00   2.23   0.38   0.00   0.00   0.00   0.00   0.00      0      0      0       0      45
 1991 271    51    48   12.0      3   1.11    735     21      0   1112    755      0    0.0  0.000      0      0  0.000  0.000  0.022  0.000   3.49   0.00   0.00      0      0    150.5   0.00   0.00   0.53   1.49   4.00   4.00   2.50   0.51   0.00   0.00   0.00   0.00   0.00      0      0      0       0      50
 1991 272    52    49   12.0      3   1.15    771     23      0   1213    793      0    0.0  0.000      0      0  0.000  0.000  0.022  0.000   3.45   0.00   0.00      0      0    149.3   0.00   0.00   0.53   1.54   4.00   4.00   2.81   0.66   0.00   0.00   0.00   0.00   0.00      0      0      0       0      55
 1991 273    53    50   12.0      3   1.22    824     26      0   1315    850      0    0.0  0.000      0      0  0.000  0.000  0.022  0.000   3.42   0.00   0.00      0      0    147.7   0.00   0.00   0.54   1.61   4.00   4.00   3.13   0.84   0.00   0.00   0.00   0.00   0.00      0      0      0       0      61
 1991 274    54    51   12.0      3   1.26    861     29      0   1410    890      0    0.0  0.000      0      0  0.000  0.000  0.022  0.000   3.41   0.00   0.00      0      0    146.5   0.00   0.00   0.55   1.67   4.00   4.00   3.43   1.01   0.00   0.00   0.00   0.00   0.00      0      0      0       0      68
 1991 275    55    52   12.0      3   1.30    896     31      0   1518    927      0    0.0  0.000      0      0  0.000  0.000  0.022  0.000   3.40   0.00   0.00      0      0    145.4   0.00   0.00   0.55   1.74   4.00   4.00   3.78   1.23   0.00   0.00   0.00   0.00   0.00      0      0      0       0      75
 1991 276    56    53   12.0      3   1.29    933     35      0   1642    968      0    0.0  0.000      0      0  0.000  0.000  0.022  0.000   3.38   0.00   0.00      0      0    137.7   0.00   0.00   0.56   1.74   4.00   4.00   4.00   1.50   0.00   0.00   0.00   0.00   0.00      0      0      0       0      83
 1991 277    57    54   12.0      3   1.34    983     40      0   1738   1023      0    0.0  0.000      0      0  0.000  0.000  0.022  0.000   3.35   0.00   0.00      0      0    136.8   0.00   0.00   0.57   1.74   4.00   4.00   4.00   1.73   0.00   0.00   0.00   0.00   0.00      0      0      0       0      91
 1991 278    58    55   12.0      3   1.38   1016     44      0   1744   1059      0    0.0  0.000      0      0  0.000  0.000  0.022  0.000   3.40   0.00   0.00      0      0    136.1   0.00   0.00   0.57   1.74   4.00   4.00   4.00   1.75   0.00   0.00   0.00   0.00   0.00      0      0      0       0      99
 1991 279    59    56   12.0      3   1.40   1031     45      0   1773   1076      0    0.0  0.000      0      0  0.000  0.000  0.022  0.000   3.39   0.00   0.00      0      0    135.5   0.00   0.00   0.58   1.73   4.00   4.00   4.00   1.84   0.00   0.00   0.00   0.00   0.00      0      0      0       0     108
 1991 280    60    57   13.0      3   1.36   1049     48      0   1811   1096      0    0.0  0.000      0      0  0.000  0.000  0.022  0.000   3.38   0.00   0.00      0      0    129.9   0.00   0.00   0.58   1.62   3.81   3.98   3.90   1.85   0.00   0.00   0.00   0.00   0.00      0      0      0       0     117
 1991 281    61    58   13.0      3   1.33   1073     51      0   1912   1124      0    0.0  0.000      0      0  0.000  0.000  0.022  0.154   3.35   0.00   0.00      0      0    124.1   0.00   0.00   0.58   1.58   3.82   4.00   4.00   2.11   0.00   0.00   0.00   0.00   0.00      0      0      0       0     126
 1991 282    62    59   13.0      3   1.39   1123     58      0   2016   1181      0    0.0  0.000      0      0  0.000  0.000  0.022  0.063   3.30   0.00   0.00      0      0    123.7   0.00   0.00   0.59   1.57   3.90   4.00   4.00   2.45   0.00   0.00   0.00   0.00   0.00      0      0      0       0     136
 1991 283    63    60   13.0      3   1.46   1183     68      0   2145   1251      0    0.0  0.000      0      0  0.000  0.000  0.022  0.004   3.28   0.00   0.00      0      0    123.3   0.00   0.00   0.60   1.58   4.00   4.00   4.00   2.93   0.00   0.00   0.00   0.00   0.00      0      0      0       0     146
 1991 284    64    61   13.0      3   1.54   1256     82      0   2269   1339      0    0.0  0.000      0      0  0.000  0.000  0.022  0.000   3.26   0.00   0.00      0      0    122.8   0.00   0.00   0.61   1.59   4.00   4.00   4.00   3.48   0.00   0.00   0.00   0.00   0.00      0      0      0       0     156
 1991 285    65    62   14.0      3   1.67   1363    107      0   2376   1471      0    0.0  0.000      0      0  0.000  0.000  0.022  0.000   3.22   0.00   0.00      0      0    122.1   0.00   0.00   0.62   1.59   4.00   4.00   4.00   3.92   0.04   0.00   0.00   0.00   0.00      0      0      0       0     168
 1991 286    66    63   14.0      3   1.85   1522    155      0   2432   1677      0    0.0  0.000      0      0  0.000  0.000  0.022  0.000   3.16   0.00   0.00      0      0    121.2   0.00   0.00   0.65   1.59   3.96   4.00   4.00   4.00   0.08   0.00   0.00   0.00   0.00      0      0      0       0     180
 1991 287    67    64   14.0      3   1.98   1648    202      0   2429   1850      0    0.0  0.000      0      0  0.000  0.000  0.022  0.001   3.11   0.00   0.00      0      0    120.4   0.00   0.00   0.67   1.57   3.90   3.94   3.98   3.99   0.09   0.00   0.00   0.00   0.00      0      0      0       0     192
 1991 288    68    65   15.0      3   2.07   1727    236      0   2423   1963      0    0.0  0.000      0      0  0.000  0.000  0.022  0.002   3.08   0.00   0.00      0      0    119.7   0.00   0.00   0.68   1.54   3.83   3.87   3.93   3.94   0.10   0.00   0.00   0.00   0.00      0      0      0       0     204
 1991 289    69    66   15.0      3   2.13   1787    264      0   2432   2051      0    0.0  0.000      0      0  0.000  0.000  0.022  0.008   3.02   0.00   0.00      0      0    119.2   0.00   0.00   0.69   1.45   3.58   3.62   3.71   3.77   0.14   0.00   0.00   0.00   0.00      0      0      0       0     216
 1991 290    70    67   15.0      3   2.15   1811    275      0   2507   2086      0    0.0  0.000      0      0  0.000  0.000  0.022  0.402   3.04   0.00   0.00      0      0    118.7   0.00   0.00   0.69   1.44   3.48   3.52   3.73   3.93   0.36   0.00   0.00   0.00   0.00      0      0      0       0     228
 1991 291    71    68   15.0      3   2.21   1868    305      0   2679   2173      0    0.0  0.000      0      0  0.000  0.000  0.022  0.138   3.00   0.00   0.00      0      0    118.2   0.00   0.00   0.70   1.54   3.52   3.56   3.95   4.00   0.92   0.00   0.00   0.00   0.00      0      0      0       0     241
 1991 292    72    69   16.0      3   2.30   1957    355      0   2825   2313      0    0.0  0.000      0      0  0.000  0.000  0.022  0.036   2.91   0.00   0.00      0      0    117.5   0.00   0.00   0.71   1.67   3.61   3.65   4.00   4.00   1.48   0.00   0.00   0.00   0.00      0      0      0       0     254
 1991 293    73    70   16.0      3   2.40   2056    417      0   2964   2473      0    0.0  0.000      0      0  0.000  0.000  0.022  0.011   2.81   0.00   0.00      0      0    116.8   0.00   0.00   0.72   1.84   3.76   3.80   4.00   4.00   2.08   0.00   0.00   0.00   0.00      0      0      0       0     268
 1991 294    74    71   16.0      3   2.53   2185    507      0   3058   2692      0    0.0  0.000      0      0  0.000  0.000  0.022  0.000   2.65   0.00   0.00      0      0    115.9   0.00   0.00   0.74   1.99   3.90   3.94   4.00   4.00   2.54   0.00   0.00   0.00   0.00      0      0      0       0     283
 1991 295    75    72   17.0      3   2.70   2344    635      0   3083   2978      0    0.0  0.000      0      0  0.000  0.000  0.022  0.000   2.46   0.00   0.00      0      0    115.0   0.00   0.00   0.76   2.05   3.95   3.98   4.00   4.00   2.70   0.00   0.00   0.00   0.00      0      0      0       0     298
 1991 296    76    73   17.0      3   2.76   2417    697      0   3076   3115      0    0.0  0.000      0      0  0.000  0.000  0.028  0.000   2.40   0.00   0.00      0      0    114.3   0.00   0.00   0.77   2.05   3.94   3.98   3.99   3.98   2.72   0.00   0.00   0.00   0.00      0      0      0       0     314
 1991 297    77    74   17.0      3   2.81   2470    745      0   3079   3215      0    0.0  0.000      0      0  0.000  0.000  0.038  0.000   2.37   0.00   0.00      0      0    113.6   0.00   0.00   0.77   2.08   3.96   3.99   3.98   3.98   2.77   0.00   0.00   0.00   0.00      0      0      0       0     329
 1991 298    78    75   17.0      3   2.86   2536    809      0   3070   3345      0    0.0  0.000      0      0  0.000  0.000  0.040  0.000   2.32   0.00   0.00      0      0    112.8   0.00   0.00   0.79   2.09   3.96   3.99   3.97   3.97   2.77   0.00   0.00   0.00   0.00      0      0      0       0     345
 1991 299    79    76   18.0      3   2.97   2652    930      0   3145   3583      0    0.0  0.000      0      0  0.000  0.000  0.040  0.000   2.20   0.00   0.00      0      0    111.8   0.00   0.00   0.80   2.33   4.00   4.00   4.00   4.00   2.99   0.00   0.00   0.00   0.00      0      0      0       0     360
 1991 300    80    77   18.0      3   3.05   2748   1038      0   3141   3786      0    0.0  0.000      0      0  0.000  0.000  0.043  0.000   2.10   0.00   0.00      0      0    110.9   0.00   0.00   0.81   2.36   4.00   4.00   4.00   3.99   2.99   0.00   0.00   0.00   0.00      0      0      0       0     376
 1991 301    81    78   18.0      3   3.09   2808   1110      0   3132   3918      0    0.0  0.000      0      0  0.000  0.000  0.051  0.000   2.06   0.00   0.00      0      0    110.0   0.00   0.00   0.82   2.38   4.00   4.00   3.99   3.98   2.98   0.00   0.00   0.00   0.00      0      0      0       0     391
 1991 302    82    79   18.0      3   3.17   2911   1138      0   3124   4050      0    0.0  0.000      0      0  0.000  0.000  0.059  0.000   2.01   0.00   0.00      0      0    108.9   0.00   0.00   0.83   2.39   4.00   4.00   3.98   3.98   2.97   0.00   0.00   0.00   0.00      0      0      0       0     407
 1991 303    83    80   18.0      3   3.22   2986   1197      0   3116   4183      0    0.0  0.000      0      0  0.000  0.000  0.062  0.000   1.96   0.00   0.00      0      0    107.9   0.00   0.00   0.84   2.41   4.00   4.00   3.97   3.97   2.97   0.00   0.00   0.00   0.00      0      0      0       0     423
 1991 304    84    81   19.0      3   3.26   3049   1268      0   3108   4317      0    0.0  0.000      0      0  0.000  0.000  0.065  0.000   1.91   0.00   0.00      0      0    106.8   0.00   0.00   0.85   2.43   4.00   4.00   3.96   3.96   2.96   0.00   0.00   0.00   0.00      0      0      0       0     438
 1991 305    85    82   19.0      3   3.33   3151   1406      0   3136   4557      0    0.0  0.000      0      0  0.000  0.000  0.069  0.023   1.82   0.00   0.00      0      0    105.7   0.00   0.00   0.86   2.59   4.00   4.00   4.00   4.00   2.99   0.00   0.00   0.00   0.00      0      0      0       0     454
 1991 306    86    83   19.0      3   3.38   3232   1533      0   3251   4765      0    0.0  0.000      0      0  0.000  0.000  0.073  0.000   1.75   0.00   0.00      0      0    104.6   0.00   0.00   0.87   3.07   4.00   4.00   4.00   4.00   3.12   0.00   0.00   0.00   0.00      0      0      0       0     469
 1991 307    87    84   19.0      3   3.42   3307   1663      0   3321   4971      0    0.0  0.000      0      0  0.000  0.000  0.082  0.000   1.69   0.00   0.00      0      0    103.4   0.00   0.00   0.88   3.39   4.00   4.00   4.00   4.00   3.20   0.00   0.00   0.00   0.00      0      0      0       0     486
 1991 308    88    85   20.0      3   3.45   3379   1799      0   3453   5178      0    0.0  0.000      0      0  0.000  0.000  0.089  0.000   1.64   0.00   0.00      0      0    102.1   0.00   0.00   0.90   3.93   4.00   4.00   4.00   4.00   3.37   0.00   0.00   0.00   0.00      0      0      0       0     502
[...]
 1995 317    97    94   20.0      3   3.63   3475   2373      0   4238   5848      0    0.0  0.000      0      0  0.000  0.000  0.089  0.000   1.58   0.00   0.00      0      0    104.4   0.00   0.00   0.92   3.86   4.00   4.00   4.00   4.00   3.30   0.50   0.00   0.00   0.00      0      0      0       0     540
 1995 318    98    95   21.0      3   3.64   3533   2539      0   4319   6072      0    0.0  0.000      0      0  0.000  0.000  0.090  0.000   1.55   0.00   0.00      0      0    103.1   0.00   0.00   0.94   4.00   4.00   4.00   4.00   4.00   3.37   0.81   0.00   0.00   0.00      0      0      0       0     561
 1995 319    99    96   21.0      3   3.66   3588   2705      0   4379   6294      0    0.0  0.000      0      0  0.000  0.000  0.092  0.000   1.51   0.00   0.00      0      0    101.9   0.00   0.00   0.95   4.00   4.00   4.00   4.00   4.00   3.42   1.08   0.00   0.00   0.00      0      0      0       0     583
 1995 320   100    97   21.0      3   3.66   3634   2843      0   4390   6477      0    0.0  0.000      0      0  0.000  0.000  0.096  0.000   1.48   0.00   0.00      0      0    100.6   0.00   0.00   0.96   4.00   4.00   4.00   4.00   4.00   3.43   1.19   0.00   0.00   0.00      0      0      0       0     605
 1995 321   101    98   21.0      3   3.65   3675   2965      0   4472   6640      0    0.0  0.000      0      0  0.000  0.000  0.101  0.086   1.46   0.00   0.00      0      0     99.3   0.00   0.00   0.97   4.00   4.00   4.00   4.00   4.00   3.49   1.53   0.00   0.00   0.00      0      0      0       0     627
 1995 322   102    99   21.0      3   3.64   3715   3086      0   4619   6801      0    0.0  0.000      0      0  0.000  0.000  0.105  0.119   1.44   0.00   0.00      0      0     98.0   0.00   0.00   0.98   4.00   4.00   4.00   4.00   4.00   3.62   2.07   0.00   0.00   0.00      0      0      0       0     649
 1995 323   103   100   21.0      3   3.63   3755   3206      0   4776   6961      0    0.0  0.000      0      0  0.000  0.000  0.107  0.034   1.42   0.00   0.00      0      0     96.6   0.00   0.00   0.99   4.00   4.00   4.00   4.00   4.00   3.76   2.60   0.00   0.00   0.00      0      0      0       0     672
 1995 324   104   101   21.0      3   3.62   3800   3340      0   4929   7140      0    0.0  0.000      0      0  0.000  0.000  0.109  0.000   1.40   0.00   0.00      0      0     95.3   0.00   0.00   1.00   4.00   4.00   4.00   4.00   4.00   3.90   3.08   0.00   0.00   0.00      0      0      0       0     696
 1995 325   105   102   21.0      3   3.62   3853   3499      0   4981   7352      0    0.0  0.000      0      0  0.000  0.000  0.110  0.000   1.37   0.00   0.00      0      0     94.0   0.00   0.00   1.01   4.00   4.00   4.00   4.00   4.00   3.95   3.26   0.00   0.00   0.00      0      0      0       0     721
 1995 326   106   103   21.0      3   3.62   3905   3653      0   4968   7558      0    0.0  0.000      0      0  0.000  0.000  0.111  0.000   1.34   0.00   0.00      0      0     92.7   0.00   0.00   1.02   4.00   4.00   4.00   3.99   3.99   3.94   3.27   0.00   0.00   0.00      0      0      0       0     746
 1995 327   107   104   21.0      4   3.57   3865   3099      0   5011   7714      0    0.0  0.000    750      0  0.000  0.000  0.114  0.000   1.47   0.00   0.10      0    750     92.4   0.00   0.00   1.04   4.00   4.00   4.00   4.00   4.00   3.99   3.37   0.00   0.00   0.00      0      0      0       0     770
 1995 328   108   105   21.0      4   3.52   3822   3149      0   5098   7846      0    0.0  0.000    875      0  0.000  0.000  0.116  0.000   1.48   0.00   0.11      0    875     92.0   0.00   0.00   1.05   4.00   4.00   4.00   4.00   4.00   4.00   3.48   0.00   0.00   0.00      0      0      0       0     795
 1995 329   109   106   21.0      4   3.48   3777   3203      0   5183   7989      0    0.0  0.000   1009      0  0.000  0.000  0.087  0.000   1.49   0.00   0.13      0   1009     92.1   0.00   0.00   1.06   4.00   4.00   4.00   4.00   4.00   4.00   3.54   0.00   0.00   0.00      0      0      0       0     821
 1995 330   110   107   21.0      4   3.44   3729   3277      0   5276   8200      0    0.0  0.000   1194      0  0.000  0.000  0.081  0.000   1.49   0.00   0.15      0   1194     92.4   0.00   0.00   1.07   4.00   4.00   4.00   4.00   4.00   4.00   3.62   0.00   0.00   0.00      0      0      0       0     847
 1995 331   111   108   21.0      4   3.41   3680   3317      0   5443   8293      0    0.0  0.000   1296      0  0.000  0.000  0.077  0.000   1.50   0.00   0.16      0   1296     92.7   0.00   0.00   1.08   4.00   4.00   4.00   4.00   4.00   4.00   3.75   0.00   0.00   0.00      0      0      0       0     873
 1995 332   112   109   21.0      4   3.38   3629   3357      0   5623   8382      0    0.0  0.000   1396      0  0.000  0.000  0.075  0.000   1.51   0.00   0.17      0   1396     93.1   0.00   0.00   1.09   4.00   4.00   4.00   4.00   4.00   4.00   3.90   0.05   0.00   0.00      0      0      0       0     900
 1995 333   113   110   21.0      4   3.35   3576   3418      0   5775   8540      0    0.0  0.000   1547      0  0.000  0.000  0.070  0.000   1.52   0.00   0.18      0   1547     93.7   0.00   0.00   1.09   4.00   4.00   4.00   4.00   4.00   4.00   4.00   0.14   0.00   0.00      0      0      0       0     929
 1995 334   114   111   21.0      4   3.32   3519   3494      0   5880   8750      0    0.0  0.000   1737      0  0.000  0.000  0.064  0.000   1.52   0.00   0.20      0   1737     94.4   0.00   0.00   1.10   4.00   4.00   4.00   4.00   4.00   4.00   4.00   0.25   0.00   0.00      0      0      0       0     957
 1995 335   115   112   21.0      4   3.30   3460   3556      0   5860   8908      0    0.0  0.000   1892      0  0.000  0.000  0.060  0.000   1.53   0.00   0.21      0   1892     95.3   0.00   0.00   1.11   4.00   4.00   4.00   3.99   3.99   3.99   3.99   0.26   0.00   0.00      0      0      0       0     987
 1995 336   116   113   21.0      4   3.28   3398   3639      0   5896   9138      0    0.0  0.000   2100      0  0.000  0.000  0.055  0.000   1.53   0.00   0.23      0   2100     96.4   0.00   0.00   1.13   4.00   4.00   4.00   4.00   4.00   4.00   4.00   0.34   0.00   0.00      0      0      0       0    1016
 1995 337   117   114   21.0      4   3.25   3334   3719      0   5989   9352      0    0.0  0.000   2300      0  0.000  0.000  0.051  0.000   1.54   0.00   0.25      0   2300     97.6   0.00   0.00   1.14   4.00   4.00   4.00   4.00   4.00   4.00   4.00   0.50   0.00   0.00      0      0      0       0    1046
 1995 338   118   115   21.0      4   3.23   3266   3804      0   6095   9582      0    0.0  0.000   2512      0  0.000  0.000  0.047  0.000   1.54   0.00   0.26      0   2512     99.1   0.00   0.00   1.15   4.00   4.00   4.00   4.00   4.00   4.00   4.00   0.70   0.00   0.00      0      0      0       0    1076
 1995 339   119   116   21.0      4   3.22   3194   3897      0   6156   9836      0    0.0  0.000   2745      0  0.000  0.000  0.043  0.000   1.54   0.00   0.28      0   2745    100.7   0.00   0.00   1.16   4.00   4.00   4.00   4.00   4.00   4.00   4.00   0.84   0.00   0.00      0      0      0       0    1106
 1995 340   120   117   21.0      5   3.19   3194   3897    292   6191  10128   3888    7.5  0.029   3037      7  0.000  0.000  0.068  0.000   1.49   9.60   0.30      0   3037     99.9   0.00   0.00   1.17   4.00   4.00   4.00   4.00   4.00   4.00   4.00   0.93   0.00   0.00      0      0      0       0    1137
 1995 341   121   118   21.0      5   3.16   3194   3897    583   6191  10420   3888   15.0  0.056   3328      7  0.000  0.000  0.084  0.000   1.44  17.52   0.32      0   3328     98.8   0.00   0.00   1.18   4.00   4.00   4.00   4.00   4.00   4.00   4.00   0.98   0.00   0.00      0      0      0       0    1168
 1995 342   122   119   21.0      5   3.12   3194   3897    781   6245  10618   3888   20.1  0.074   3526      7  0.000  0.000  0.094  0.000   1.41  22.15   0.33      0   3526     97.7   0.00   0.00   1.19   4.00   4.00   4.00   4.00   4.00   4.00   4.00   1.09   0.00   0.00      0      0      0       0    1199
 1995 343   123   120   21.0      5   3.08   3194   3897    941   6312  10778   3888   24.2  0.087   3686      7  0.000  0.000  0.099  0.000   1.39  25.53   0.34      0   3686     96.5   0.00   0.00   1.20   4.00   4.00   4.00   4.00   4.00   4.00   4.00   1.20   0.00   0.00      0      0      0       0    1230
 1995 344   124   121   21.0      5   3.04   3194   3897   1162   6362  10998   3888   29.9  0.106   3907      7  0.000  0.000  0.101  0.000   1.35  29.73   0.36      0   3907     95.2   0.00   0.00   1.20   4.00   4.00   4.00   4.00   4.00   4.00   4.00   1.28   0.00   0.00      0      0      0       0    1261
 1995 345   125   122   21.0      5   3.00   3194   3897   1414   6377  11250   3888   36.4  0.126   4159      7  0.000  0.000  0.106  0.000   1.31  34.00   0.37      0   4159     94.0   0.00   0.00   1.21   4.00   4.00   4.00   4.00   4.00   4.00   4.00   1.32   0.00   0.00      0      0      0       0    1293
 1995 346   126   123   21.0      5   2.96   3194   3897   1594   6435  11431   3888   41.0  0.139   4339      7  0.000  0.000  0.115  0.000   1.28  36.74   0.38      0   4339     92.6   0.00   0.00   1.22   4.00   4.00   4.00   4.00   4.00   4.00   4.00   1.37   0.00   0.00      0      0      0       0    1325
 1995 347   127   124   21.0      5   2.91   3194   3897   1868   6467  11704   3888   48.0  0.160   4613      7  0.000  0.000  0.118  0.000   1.24  40.49   0.39      0   4613     91.2   0.00   0.00   1.23   4.00   4.00   4.00   4.00   4.00   4.00   4.00   1.40   0.00   0.00      0      0      0       0    1357
 1995 348   128   125   21.0      5   2.87   3194   3897   2136   6496  11972   3888   54.9  0.178   4881      7  0.000  0.000  0.128  0.000   1.20  43.76   0.41      0   4881     89.8   0.00   0.00   1.24   4.00   4.00   4.00   4.00   4.00   4.00   4.00   1.41   0.00   0.00      0      0      0       0    1390
 1995 349   129   126   21.0      5   2.82   3194   3897   2404   6517  12240   3888   61.8  0.196   5149      7  0.000  0.000  0.136  0.000   1.16  46.68   0.42      0   5149     88.3   0.00   0.00   1.25   4.00   4.00   4.00   4.00   4.00   4.00   4.00   1.43   0.00   0.00      0      0      0       0    1422
 1995 350   130   127   21.0      5   2.77   3194   3897   2695   6519  12532   3888   69.3  0.215   5440      7  0.000  0.000  0.142  0.000   1.11  49.54   0.43      0   5440     86.7   0.00   0.00   1.25   4.00   4.00   4.00   4.00   4.00   4.00   4.00   1.43   0.00   0.00      0      0      0       0    1455
 1995 351   131   128   21.0      5   2.72   3194   3897   2987   6540  12823   3888   76.8  0.233   5732      7  0.000  0.000  0.152  0.000   1.07  52.11   0.45      0   5732     85.0   0.00   0.00   1.25   4.00   4.00   4.00   4.00   4.00   4.00   4.00   1.45   0.00   0.00      0      0      0       0    1487
 1995 352   132   129   21.0      5   2.66   3194   3897   3278   6549  13115   3888   84.3  0.250   6024      7  0.000  0.000  0.160  0.000   1.02  54.43   0.46      0   6024     83.3   0.00   0.00   1.25   4.00   4.00   4.00   4.00   4.00   4.00   4.00   1.46   0.00   0.00      0      0      0       0    1520
 1995 353   133   130   21.0      5   2.61   3194   3897   3570   6567  13406   3888   91.8  0.266   6315      7  0.000  0.000  0.170  0.000   0.98  56.53   0.47      0   6315     81.6   0.00   0.00   1.25   4.00   4.00   4.00   4.00   4.00   4.00   4.00   1.47   0.00   0.00      0      0      0       0    1553
 1995 354   134   131   21.0      5   2.55   3194   3897   3862   6582  13698   3888   99.3  0.282   6607      7  0.000  0.000  0.180  0.000   0.95  58.45   0.48      0   6607     79.7   0.00   0.00   1.25   4.00   4.00   4.00   4.00   4.00   4.00   4.00   1.48   0.00   0.00      0      0      0       0    1586
 1995 355   135   132   21.0      5   2.49   3194   3897   4153   6568  13990   3888  106.8  0.297   6898      7  0.000  0.000  0.188  0.000   0.91  60.20   0.49      0   6898     77.9   0.00   0.00   1.25   4.00   4.00   4.00   4.00   4.00   4.00   3.99   1.48   0.00   0.00      0      0      0       0    1619
 1995 356   136   133   21.0      5   2.43   3194   3884   4445   6535  14269   3888  114.3  0.312   7190      7  0.000  0.000  0.199  0.000   0.88  61.82   0.50      0   7190     75.9   0.00   0.00   1.25   4.00   4.00   4.00   4.00   4.00   4.00   3.99   1.48   0.00   0.00      0      0      0       0    1651
 1995 357   137   134   21.0      5   2.36   3194   3770   4703   6502  14413   3888  121.0  0.326   7448      7  0.000  0.000  0.230  0.000   0.86  63.14   0.52      0   7448     73.9   0.00   0.00   1.25   4.00   4.00   4.00   4.00   4.00   4.00   3.99   1.48   0.00   0.00      0      0      0       0    1684
 1995 358   138   135   21.0      5   2.30   3194   3624   4976   6470  14539   3888  128.0  0.342   7721      7  0.000  0.000  0.258  0.073   0.84  64.44   0.53      0   7721     71.9   0.00   0.00   1.25   4.00   4.00   4.00   4.00   4.00   4.00   3.99   1.48   0.00   0.00      0      0      0       0    1717
 1995 359   139   136   21.0      5   2.23   3194   3492   5251   6437  14683   3888  135.1  0.358   7996      7  0.000  0.000  0.272  0.161   0.83  65.67   0.54      0   7996     69.9   0.00   0.00   1.25   4.00   4.00   4.00   4.00   4.00   4.00   3.99   1.48   0.00   0.00      0      0      0       0    1749
 1995 360   140   137   21.0      5   2.17   3194   3560   5526   6439  15025   3888  142.1  0.368   8271      7  0.000  0.000  0.283  0.071   0.79  66.81   0.55      0   8271     67.9   0.00   0.00   1.25   4.00   4.00   4.00   4.00   4.00   4.00   4.00   1.48   0.00   0.00      0      0      0       0    1781
 1995 361   141   138   21.0      5   2.11   3194   3629   5777   6442  15346   3888  148.6  0.376   8522      7  0.000  0.000  0.293  0.007   0.75  67.79   0.56      0   8522     65.9   0.00   0.00   1.25   4.00   4.00   4.00   4.00   4.00   4.00   4.00   1.49   0.00   0.00      0      0      0       0    1813
 1995 362   142   139   21.0      5   2.04   3194   3680   6041   6435  15661   3888  155.4  0.386   8786      7  0.000  0.000  0.337  0.000   0.72  68.76   0.56      0   8786     63.9   0.00   0.00   1.25   4.00   4.00   4.00   4.00   4.00   4.00   4.00   1.49   0.00   0.00      0      0      0       0    1845
 1995 363   143   140   21.0      5   1.98   3194   3706   6322   6415  15968   3888  162.6  0.396   9067      7  0.000  0.000  0.377  0.000   0.69  69.72   0.57      0   9067     61.8   0.00   0.00   1.25   4.00   4.00   4.00   4.00   4.00   3.99   3.99   1.49   0.00   0.00      0      0      0       0    1878
 1995 364   144   141   21.0      5   1.91   3194   3724   6599   6392  16263   3888  169.8  0.406   9345      7  0.000  0.000  0.418  0.000   0.67  70.62   0.57      0   9345     59.7   0.00   0.00   1.25   4.00   4.00   4.00   3.99   3.99   3.98   3.97   1.49   0.00   0.00      0      0      0       0    1910
 1995 365   145   142   21.0      5   1.84   3194   3727   6867   6362  16534   3888  176.6  0.415   9612      7  0.000  0.000  0.453  0.000   0.64  71.44   0.58      0   9612     57.6   0.00   0.00   1.25   3.98   3.98   3.98   3.97   3.97   3.96   3.96   1.48   0.00   0.00      0      0      0       0    1942
 1996 001   146   143   21.0      5   1.77   3194   3725   7140   6330  16804   3888  183.7  0.425   9885      7  0.000  0.000  0.482  0.000   0.62  72.23   0.59      0   9885     55.5   0.00   0.00   1.25   3.98   3.98   3.98   3.97   3.97   3.96   3.96   1.48   0.00   0.00      0      0      0       0    1974
 1996 002   147   144   21.0      5   1.71   3194   3687   7431   6298  17058   3888  191.2  0.436  10177      7  0.000  0.000  0.508  0.000   0.61  73.02   0.60      0  10177     53.4   0.00   0.00   1.25   3.98   3.98   3.98   3.97   3.97   3.96   3.96   1.48   0.00   0.00      0      0      0       0    2005
 1996 003   148   145   21.0      5   1.64   3194   3624   7723   6267  17286   3888  198.7  0.447  10468      7  0.000  0.000  0.535  0.000   0.59  73.78   0.61      0  10468     51.3   0.00   0.00   1.25   3.98   3.98   3.98   3.97   3.97   3.96   3.96   1.48   0.00   0.00      0      0      0       0    2037
 1996 004   149   146   21.0      5   1.57   3194   3444   8015   6236  17398   3888  206.2  0.461  10760      7  0.000  0.000  0.558  0.000   0.59  74.49   0.62      0  10760     49.3   0.00   0.00   1.25   3.98   3.98   3.98   3.97   3.97   3.96   3.96   1.48   0.00   0.00      0      0      0       0    2068
 1996 005   150   147   21.0      5   1.51   3194   3350   8306   6204  17595   3888  213.7  0.472  11051      7  0.000  0.000  0.572  0.000   0.58  75.16   0.63      0  11051     47.3   0.00   0.00   1.25   3.98   3.98   3.98   3.97   3.97   3.96   3.96   1.48   0.00   0.00      0      0      0       0    2099
 1996 006   151   148   21.0      5   1.45   3194   3318   8546   6173  17803   3888  219.8  0.480  11291      7  0.000  0.000  0.568  0.000   0.57  75.69   0.63      0  11291     45.4   0.00   0.00   1.25   3.98   3.98   3.98   3.97   3.97   3.96   3.96   1.48   0.00   0.00      0      0      0       0    2130
 1996 007   152   149   21.0      5   1.39   3194   3271   8795   6142  18005   3888  226.2  0.488  11540      7  0.000  0.000  0.570  0.000   0.56  76.21   0.64      0  11540     43.5   0.00   0.00   1.25   3.98   3.98   3.98   3.97   3.97   3.96   3.96   1.48   0.00   0.00      0      0      0       0    2161
 1996 008   153   150   21.0      5   1.33   3194   3177   9078   6112  18194   3888  233.5  0.499  11823      7  0.000  0.000  0.587  0.000   0.56  76.78   0.65      0  11823     41.7   0.00   0.00   1.25   3.98   3.98   3.98   3.97   3.97   3.96   3.96   1.48   0.00   0.00      0      0      0       0    2192
 1996 009   154   151   21.0      5   1.28   3194   3013   9369   6081  18322   3888  241.0  0.511  12115      7  0.000  0.000  0.594  0.000   0.56  77.34   0.66      0  12115     40.0   0.00   0.00   1.25   3.98   3.98   3.98   3.97   3.97   3.96   3.96   1.48   0.00   0.00      0      0      0       0    2222
 1996 010   155   152   21.0      5   1.23   3194   2895   9661   6051  18496   3888  248.5  0.522  12406      7  0.000  0.000  0.594  0.000   0.56  77.87   0.67      0  12406     38.4   0.00   0.00   1.25   3.98   3.98   3.98   3.97   3.97   3.96   3.96   1.48   0.00   0.00      0      0      0       0    2253
 1996 011   156   153   21.0      5   1.23   3194   2895   9661   6051  18496   3888  248.5  0.522  12406      7  0.000  0.000  0.594  0.000   0.56  77.87   0.67      0  12406     38.4   0.00   0.00   1.25   3.98   3.98   3.98   3.97   3.97   3.96   3.96   1.48   0.00   0.00      0      0      0       0    2253
 1996 012   157   154   21.0      5   1.23   3194   2895   9661   6051  18496   3888  248.5  0.522  12406      7  0.000  0.000  0.594  0.000   0.56  77.87   0.67      0  12406     38.4   0.00   0.00   1.25   3.98   3.98   3.98   3.97   3.97   3.96   3.96   1.48   0.00   0.00      0      0      0       0    2253
 1996 013   158   155   21.0      5   1.23   3194   2895   9661   6051  18496   3888  248.5  0.522  12406      7  0.000  0.000  0.594  0.000   0.56  77.87   0.67      0  12406     38.4   0.00   0.00   1.25   3.98   3.98   3.98   3.97   3.97   3.96   3.96   1.48   0.00   0.00      0      0      0       0    2253
 1996 014   159   156   21.0      5   1.23   3194   2895   9661   6051  18496   3888  248.5  0.522  12406      7  0.000  0.000  0.594  0.000   0.56  77.87   0.67      0  12406     38.4   0.00   0.00   1.25   3.98   3.98   3.98   3.97   3.97   3.96   3.96   1.48   0.00   0.00      0      0      0       0    2253
