*GROWTH ASPECTS OUTPUT FILE

*DSSAT Cropping System Model Ver. 4.0.2.000               Aug 11, 2016; 14:51:55

*RUN   1        : UYMZ                    
 MODEL          : MZCER040 - Maize           
 EXPERIMENT     : UYMZ0138 MZ    late to create DSS                             
 TREATMENT  1   : UYMZ                    

@YEAR DOY   DAS   DAP   L#SD   GSTD   LAID   LWAD   SWAD   GWAD   RWAD   CWAD   G#AD   GWGD   HIAD   PWAD   P#AD   WSPD   WSGD   NSTD   EWSD   LN%D   SH%D   HIPD   PWDD   PWTD     SLAD   CHTD   CWID   RDPD   RL1D   RL2D   RL3D   RL4D   RL5D   RL6D   RL7D   RL8D   RL9D   RL10   CDAD   LDAD   SDAD   SNW0C   SNW1C
 2000 223     3     0    0.0      0   0.00      0      0      0      0      0      0    0.0  0.000      0      0  0.000  0.000  0.000  0.000   0.00   0.00   0.00      0      0      0.0   0.00   0.00   0.03   0.00   0.00   0.00   0.00   0.00   0.00   0.00   0.00   0.00   0.00      0      0      0       0       0
 2000 224     4     1    0.0      0   0.00      0      0      0      0      0      0    0.0  0.000      0      0  0.000  0.000  0.000  0.000   0.00   0.00   0.00      0      0      0.0   0.00   0.00   0.03   0.00   0.00   0.00   0.00   0.00   0.00   0.00   0.00   0.00   0.00      0      0      0       0       0
 2000 225     5     2    0.0      0   0.00      0      0      0      0      0      0    0.0  0.000      0      0  0.000  0.000  0.000  0.000   0.00   0.00   0.00      0      0      0.0   0.00   0.00   0.03   0.00   0.00   0.00   0.00   0.00   0.00   0.00   0.00   0.00   0.00      0      0      0       0       0
 2000 226     6     3    0.0      0   0.00      0      0      0      0      0      0    0.0  0.000      0      0  0.000  0.000  0.000  0.000   0.00   0.00   0.00      0      0      0.0   0.00   0.00   0.03   0.00   0.00   0.00   0.00   0.00   0.00   0.00   0.00   0.00   0.00      0      0      0       0       0
 2000 227     7     4    0.0      0   0.00      0      0      0      0      0      0    0.0  0.000      0      0  0.000  0.000  0.000  0.000   0.00   0.00   0.00      0      0      0.0   0.00   0.00   0.04   0.00   0.00   0.00   0.00   0.00   0.00   0.00   0.00   0.00   0.00      0      0      0       0       0
 2000 228     8     5    0.0      0   0.00      0      0      0      0      0      0    0.0  0.000      0      0  0.000  0.000  0.000  0.000   0.00   0.00   0.00      0      0      0.0   0.00   0.00   0.04   0.00   0.00   0.00   0.00   0.00   0.00   0.00   0.00   0.00   0.00      0      0      0       0       0
 2000 229     9     6    0.0      0   0.00      0      0      0      0      0      0    0.0  0.000      0      0  0.000  0.000  0.000  0.000   0.00   0.00   0.00      0      0      0.0   0.00   0.00   0.05   0.00   0.00   0.00   0.00   0.00   0.00   0.00   0.00   0.00   0.00      0      0      0       0       0
 2000 230    10     7    0.0      0   0.00      0      0      0      0      0      0    0.0  0.000      0      0  0.000  0.000  0.000  0.000   0.00   0.00   0.00      0      0      0.0   0.00   0.00   0.06   0.00   0.00   0.00   0.00   0.00   0.00   0.00   0.00   0.00   0.00      0      0      0       0       0
 2000 231    11     8    0.0      0   0.00      0      0      0      0      0      0    0.0  0.000      0      0  0.000  0.000  0.000  0.000   0.00   0.00   0.00      0      0      0.0   0.00   0.00   0.07   0.00   0.00   0.00   0.00   0.00   0.00   0.00   0.00   0.00   0.00      0      0      0       0       0
 2000 232    12     9    0.0      0   0.00      0      0      0      0      0      0    0.0  0.000      0      0  0.000  0.000  0.000  0.000   0.00   0.00   0.00      0      0      0.0   0.00   0.00   0.08   0.00   0.00   0.00   0.00   0.00   0.00   0.00   0.00   0.00   0.00      0      0      0       0       0
 2000 233    13    10    0.0      0   0.00      0      0      0      0      0      0    0.0  0.000      0      0  0.000  0.000  0.000  0.000   0.00   0.00   0.00      0      0      0.0   0.00   0.00   0.10   0.00   0.00   0.00   0.00   0.00   0.00   0.00   0.00   0.00   0.00      0      0      0       0       0
 2000 234    14    11    0.0      0   0.00      0      0      0      0      0      0    0.0  0.000      0      0  0.000  0.000  0.000  0.000   0.00   0.00   0.00      0      0      0.0   0.00   0.00   0.11   0.00   0.00   0.00   0.00   0.00   0.00   0.00   0.00   0.00   0.00      0      0      0       0       0
 2000 235    15    12    1.0      1   0.00     14     14      0     14     28      0    0.0  0.000      0      0  0.000  0.000  0.012  0.000   4.40   0.00   0.00      0      0     22.9   0.00   0.00   0.13   0.28   0.09   0.00   0.00   0.00   0.00   0.00   0.00   0.00   0.00      0      0      0       0       0
 2000 236    16    13    2.0      1   0.01     14     14      0     14     28      0    0.0  0.000      0      0  0.000  0.000  0.014  0.000   4.51   0.00   0.00      0      0     40.6   0.00   0.00   0.14   0.28   0.09   0.00   0.00   0.00   0.00   0.00   0.00   0.00   0.00      0      0      0       0       0
 2000 237    17    14    2.0      1   0.01     14     14      0     14     28      0    0.0  0.000      0      0  0.000  0.000  0.000  0.000   4.51   0.00   0.00      0      0     57.1   0.00   0.00   0.15   0.26   0.09   0.00   0.00   0.00   0.00   0.00   0.00   0.00   0.00      0      0      0       0       0
 2000 238    18    15    2.0      1   0.01     14     14      0     15     28      0    0.0  0.000      0      0  0.000  0.000  0.000  0.000   4.51   0.00   0.00      0      0     68.5   0.00   0.00   0.15   0.25   0.09   0.00   0.00   0.00   0.00   0.00   0.00   0.00   0.00      0      0      0       0       0
 2000 239    19    16    3.0      1   0.01     14     14      0     16     28      0    0.0  0.000      0      0  0.000  0.000  0.000  0.033   4.46   0.00   0.00      0      0     76.8   0.00   0.00   0.16   0.25   0.10   0.00   0.00   0.00   0.00   0.00   0.00   0.00   0.00      0      0      0       0       0
 2000 240    20    17    3.0      1   0.01     14     14      0     17     28      0    0.0  0.000      0      0  0.000  0.000  0.000  0.000   4.45   0.00   0.00      0      0     80.9   0.00   0.00   0.16   0.26   0.13   0.00   0.00   0.00   0.00   0.00   0.00   0.00   0.00      0      0      0       0       0
 2000 241    21    18    3.0      1   0.01     14     14      0     18     28      0    0.0  0.000      0      0  0.000  0.000  0.000  0.000   4.45   0.00   0.00      0      0     69.0   0.00   0.00   0.16   0.26   0.13   0.00   0.00   0.00   0.00   0.00   0.00   0.00   0.00      0      0      0       0       0
 2000 242    22    19    3.0      1   0.01     14     14      0     19     28      0    0.0  0.000      0      0  0.000  0.000  0.000  0.000   4.45   0.00   0.00      0      0     65.3   0.00   0.00   0.16   0.27   0.14   0.00   0.00   0.00   0.00   0.00   0.00   0.00   0.00      0      0      0       0       0
 2000 243    23    20    3.0      1   0.01     14     14      0     20     28      0    0.0  0.000      0      0  0.000  0.000  0.000  0.000   4.45   0.00   0.00      0      0     72.7   0.00   0.00   0.17   0.28   0.16   0.00   0.00   0.00   0.00   0.00   0.00   0.00   0.00      0      0      0       0       0
 2000 244    24    21    3.0      1   0.01     14     14      0     21     28      0    0.0  0.000      0      0  0.000  0.000  0.000  0.000   4.42   0.00   0.00      0      0     77.0   0.00   0.00   0.17   0.28   0.17   0.00   0.00   0.00   0.00   0.00   0.00   0.00   0.00      0      0      0       0       0
 2000 245    25    22    3.0      1   0.01     14     14      0     21     28      0    0.0  0.000      0      0  0.000  0.000  0.000  0.000   4.42   0.00   0.00      0      0     42.2   0.00   0.00   0.17   0.28   0.18   0.01   0.00   0.00   0.00   0.00   0.00   0.00   0.00      0      0      0       0       0
 2000 246    26    23    3.0      1   0.00     14     14      0     22     28      0    0.0  0.000      0      0  0.000  0.000  0.000  0.000   4.42   0.00   0.00      0      0     25.4   0.00   0.00   0.18   0.29   0.18   0.01   0.00   0.00   0.00   0.00   0.00   0.00   0.00      0      0      0       0       0
 2000 247    27    24    3.0      1   0.00     14     14      0     22     28      0    0.0  0.000      0      0  0.000  0.000  0.000  0.000   4.42   0.00   0.00      0      0     21.8   0.00   0.00   0.18   0.29   0.19   0.01   0.00   0.00   0.00   0.00   0.00   0.00   0.00      0      0      0       0       0
 2000 248    28    25    3.0      1   0.00     14     14      0     22     28      0    0.0  0.000      0      0  0.000  0.000  0.000  0.000   4.42   0.00   0.00      0      0     32.0   0.00   0.00   0.18   0.29   0.19   0.01   0.00   0.00   0.00   0.00   0.00   0.00   0.00      0      0      0       0       0
 2000 249    29    26    4.0      1   0.01     14     14      0     23     28      0    0.0  0.000      0      0  0.000  0.000  0.000  0.000   4.42   0.00   0.00      0      0     47.7   0.00   0.00   0.19   0.29   0.20   0.01   0.00   0.00   0.00   0.00   0.00   0.00   0.00      0      0      0       0       0
 2000 250    30    27    4.0      1   0.01     14     14      0     24     28      0    0.0  0.000      0      0  0.000  0.000  0.000  0.000   4.42   0.00   0.00      0      0     88.1   0.00   0.00   0.19   0.30   0.21   0.01   0.00   0.00   0.00   0.00   0.00   0.00   0.00      0      0      0       0       0
 2000 251    31    28    4.0      1   0.03     14     14      0     26     28      0    0.0  0.000      0      0  0.000  0.000  0.000  0.000   4.34   0.00   0.00      0      0    185.9   0.00   0.00   0.21   0.31   0.23   0.02   0.00   0.00   0.00   0.00   0.00   0.00   0.00      0      0      0       0       1
 2000 252    32    29    4.0      1   0.04     19     14      0     28     33      0    0.0  0.000      0      0  0.000  0.000  0.000  0.000   3.62   0.00   0.00      0      0    232.3   0.00   0.00   0.22   0.32   0.25   0.03   0.00   0.00   0.00   0.00   0.00   0.00   0.00      0      0      0       0       1
 2000 253    33    30    5.0      1   0.06     26     14      0     28     40      0    0.0  0.000      0      0  0.000  0.000  0.000  0.000   3.61   0.00   0.00      0      0    237.3   0.00   0.00   0.23   0.32   0.25   0.03   0.00   0.00   0.00   0.00   0.00   0.00   0.00      0      0      0       0       1
 2000 254    34    31    5.0      1   0.08     34     14      0     30     48      0    0.0  0.000      0      0  0.000  0.000  0.000  0.000   3.48   0.00   0.00      0      0    237.6   0.00   0.00   0.24   0.30   0.24   0.04   0.00   0.00   0.00   0.00   0.00   0.00   0.00      0      0      0       0       1
 2000 255    35    32    5.0      1   0.10     41     14      0     32     55      0    0.0  0.000      0      0  0.000  0.000  0.000  0.055   3.71   0.00   0.00      0      0    236.0   0.00   0.00   0.25   0.29   0.25   0.05   0.00   0.00   0.00   0.00   0.00   0.00   0.00      0      0      0       0       1
 2000 256    36    33    5.0      1   0.10     44     14      0     36     58      0    0.0  0.000      0      0  0.000  0.000  0.000  0.051   4.03   0.00   0.00      0      0    235.2   0.00   0.00   0.25   0.29   0.27   0.08   0.00   0.00   0.00   0.00   0.00   0.00   0.00      0      0      0       0       1
 2000 257    37    34    5.0      1   0.10     44     14      0     37     58      0    0.0  0.000      0      0  0.000  0.000  0.000  0.132   4.21   0.00   0.00      0      0    235.1   0.00   0.00   0.25   0.27   0.26   0.08   0.00   0.00   0.00   0.00   0.00   0.00   0.00      0      0      0       0       1
 2000 258    38    35    5.0      1   0.11     45     14      0     39     59      0    0.0  0.000      0      0  0.000  0.000  0.000  0.157   4.15   0.00   0.00      0      0    234.8   0.00   0.00   0.25   0.25   0.25   0.09   0.00   0.00   0.00   0.00   0.00   0.00   0.00      0      0      0       0       1
 2000 259    39    36    5.0      1   0.11     47     14      0     42     61      0    0.0  0.000      0      0  0.000  0.000  0.000  0.328   4.05   0.00   0.00      0      0    234.0   0.00   0.00   0.26   0.25   0.26   0.11   0.00   0.00   0.00   0.00   0.00   0.00   0.00      0      0      0       0       2
 2000 260    40    37    6.0      1   0.12     52     14      0     50     66      0    0.0  0.000      0      0  0.000  0.000  0.000  0.128   3.89   0.00   0.00      0      0    232.3   0.00   0.00   0.26   0.24   0.31   0.17   0.00   0.00   0.00   0.00   0.00   0.00   0.00      0      0      0       0       2
 2000 261    41    38    6.0      1   0.13     58     14      0     62     72      0    0.0  0.000      0      0  0.000  0.000  0.000  0.061   3.84   0.00   0.00      0      0    230.2   0.00   0.00   0.27   0.25   0.38   0.27   0.00   0.00   0.00   0.00   0.00   0.00   0.00      0      0      0       0       2
 2000 262    42    39    6.0      1   0.15     65     14      0     65     79      0    0.0  0.000      0      0  0.000  0.000  0.000  0.251   3.80   0.00   0.00      0      0    227.7   0.00   0.00   0.28   0.24   0.38   0.28   0.00   0.00   0.00   0.00   0.00   0.00   0.00      0      0      0       0       2
 2000 263    43    40    6.0      1   0.17     74     14      0     79     88      0    0.0  0.000      0      0  0.000  0.000  0.000  0.295   3.72   0.00   0.00      0      0    224.6   0.00   0.00   0.29   0.22   0.41   0.39   0.00   0.00   0.00   0.00   0.00   0.00   0.00      0      0      0       0       3
 2000 264    44    41    6.0      1   0.18     80     14      0     88     94      0    0.0  0.000      0      0  0.000  0.000  0.000  0.511   3.84   0.00   0.00      0      0    222.6   0.00   0.00   0.30   0.21   0.42   0.45   0.00   0.00   0.00   0.00   0.00   0.00   0.00      0      0      0       0       3
 2000 265    45    42    7.0      1   0.19     87     14      0     97    101      0    0.0  0.000      0      0  0.000  0.000  0.000  0.352   3.83   0.00   0.00      0      0    220.4   0.00   0.00   0.31   0.20   0.44   0.53   0.00   0.00   0.00   0.00   0.00   0.00   0.00      0      0      0       0       4
 2000 266    46    43    7.0      1   0.21     95     14      0    128    109      0    0.0  0.000      0      0  0.000  0.000  0.000  0.150   3.76   0.00   0.00      0      0    217.8   0.00   0.00   0.31   0.20   0.57   0.82   0.01   0.00   0.00   0.00   0.00   0.00   0.00      0      0      0       0       4
 2000 267    47    44    7.0      1   0.23    107     14      0    148    121      0    0.0  0.000      0      0  0.000  0.000  0.000  0.054   3.67   0.00   0.00      0      0    214.5   0.00   0.00   0.32   0.20   0.64   1.00   0.02   0.00   0.00   0.00   0.00   0.00   0.00      0      0      0       0       5
 2000 268    48    45    7.0      1   0.23    110     14      0    163    124      0    0.0  0.000      0      0  0.000  0.000  0.000  0.000   3.96   0.00   0.00      0      0    213.5   0.00   0.00   0.32   0.20   0.71   1.14   0.02   0.00   0.00   0.00   0.00   0.00   0.00      0      0      0       0       5
 2000 269    49    46    7.0      1   0.20    113     14      0    178    127      0    0.0  0.000      0      0  0.000  0.000  0.000  0.000   3.96   0.00   0.00      0      0    178.6   0.00   0.00   0.32   0.21   0.77   1.29   0.03   0.00   0.00   0.00   0.00   0.00   0.00      0      0      0       0       6
 2000 270    50    47    7.0      1   0.18    118     14      0    198    132      0    0.0  0.000      0      0  0.000  0.000  0.000  0.000   3.90   0.00   0.00      0      0    151.6   0.00   0.00   0.32   0.22   0.85   1.47   0.04   0.00   0.00   0.00   0.00   0.00   0.00      0      0      0       0       7
 2000 271    51    48    7.0      1   0.21    135     14      0    223    149      0    0.0  0.000      0      0  0.000  0.000  0.000  0.000   3.56   0.00   0.00      0      0    155.1   0.00   0.00   0.33   0.24   0.96   1.70   0.06   0.00   0.00   0.00   0.00   0.00   0.00      0      0      0       0       8
 2000 272    52    49    8.0      1   0.25    160     14      0    249    174      0    0.0  0.000      0      0  0.000  0.000  0.000  0.000   3.43   0.00   0.00      0      0    158.0   0.00   0.00   0.35   0.27   1.06   1.93   0.10   0.00   0.00   0.00   0.00   0.00   0.00      0      0      0       0       9
 2000 273    53    50    8.0      1   0.30    189     14      0    273    203      0    0.0  0.000      0      0  0.000  0.000  0.000  0.000   3.41   0.00   0.00      0      0    159.5   0.00   0.00   0.36   0.30   1.16   2.13   0.14   0.00   0.00   0.00   0.00   0.00   0.00      0      0      0       0      11
 2000 274    54    51    8.0      1   0.35    221     14      0    299    235      0    0.0  0.000      0      0  0.000  0.000  0.000  0.000   3.40   0.00   0.00      0      0    160.0   0.00   0.00   0.38   0.31   1.26   2.35   0.19   0.00   0.00   0.00   0.00   0.00   0.00      0      0      0       0      12
 2000 275    55    52    9.0      1   0.41    258     14      0    328    272      0    0.0  0.000      0      0  0.000  0.000  0.000  0.000   3.40   0.00   0.00      0      0    159.7   0.00   0.00   0.40   0.33   1.37   2.57   0.26   0.00   0.00   0.00   0.00   0.00   0.00      0      0      0       0      13
 2000 276    56    53    9.0      1   0.46    287     14      0    332    301      0    0.0  0.000      0      0  0.000  0.000  0.000  0.000   3.52   0.00   0.00      0      0    159.0   0.00   0.00   0.41   0.31   1.31   2.46   0.26   0.00   0.00   0.00   0.00   0.00   0.00      0      0      0       0      15
 2000 277    57    54    9.0      2   0.51    297     14      0    360    311      0    0.0  0.000      0      0  0.000  0.000  0.000  0.000   3.75   0.00   0.00      0      0    171.8   0.00   0.00   0.42   0.30   1.31   2.53   0.33   0.00   0.00   0.00   0.00   0.00   0.00      0      0      0       0      17
 2000 278    58    55    9.0      2   0.54    317     14      0    419    331      0    0.0  0.000      0      0  0.000  0.000  0.003  0.298   3.65   0.00   0.00      0      0    171.0   0.00   0.00   0.43   0.29   1.43   2.89   0.52   0.00   0.00   0.00   0.00   0.00   0.00      0      0      0       0      18
 2000 279    59    56   10.0      2   0.58    340     14      0    491    354      0    0.0  0.000      0      0  0.000  0.000  0.000  0.058   3.57   0.00   0.00      0      0    170.1   0.00   0.00   0.44   0.29   1.62   3.38   0.77   0.00   0.00   0.00   0.00   0.00   0.00      0      0      0       0      21
 2000 280    60    57   10.0      2   0.61    362     14      0    566    376      0    0.0  0.000      0      0  0.000  0.000  0.000  0.002   3.82   0.00   0.00      0      0    167.9   0.00   0.00   0.44   0.30   1.83   3.93   1.06   0.00   0.00   0.00   0.00   0.00   0.00      0      0      0       0      23
 2000 281    61    58   10.0      3   0.65    395     14      0    647    409      0    0.0  0.000      0      0  0.000  0.000  0.022  0.000   3.68   0.00   0.00      0      0    164.8   0.00   0.00   0.45   0.31   2.04   4.00   1.40   0.00   0.00   0.00   0.00   0.00   0.00      0      0      0       0      26
 2000 282    62    59   10.0      3   0.71    437     14      0    732    451      0    0.0  0.000      0      0  0.000  0.000  0.022  0.000   3.57   0.00   0.00      0      0    162.9   0.00   0.00   0.47   0.32   2.24   4.00   1.74   0.04   0.00   0.00   0.00   0.00   0.00      0      0      0       0      29
 2000 283    63    60   10.0      3   0.76    471     14      0    746    486      0    0.0  0.000      0      0  0.000  0.000  0.022  0.001   3.55   0.00   0.00      0      0    161.3   0.00   0.00   0.48   0.32   2.25   4.00   1.79   0.05   0.00   0.00   0.00   0.00   0.00      0      0      0       0      33
 2000 284    64    61   10.0      3   0.80    504     15      0    844    518      0    0.0  0.000      0      0  0.000  0.000  0.022  0.000   3.53   0.00   0.00      0      0    159.8   0.00   0.00   0.48   0.33   2.45   4.00   2.18   0.16   0.00   0.00   0.00   0.00   0.00      0      0      0       0      36
 2000 285    65    62   11.0      3   0.86    545     16      0    949    561      0    0.0  0.000      0      0  0.000  0.000  0.022  0.021   3.50   0.00   0.00      0      0    158.1   0.00   0.00   0.49   0.34   2.66   4.00   2.60   0.31   0.00   0.00   0.00   0.00   0.00      0      0      0       0      41
 2000 286    66    63   11.0      3   0.97    622     18      0   1029    640      0    0.0  0.000      0      0  0.000  0.000  0.022  0.001   3.46   0.00   0.00      0      0    155.4   0.00   0.00   0.51   0.35   2.79   4.00   2.91   0.47   0.00   0.00   0.00   0.00   0.00      0      0      0       0      45
 2000 287    67    64   11.0      3   1.04    674     21      0   1130    695      0    0.0  0.000      0      0  0.000  0.000  0.022  0.001   3.43   0.00   0.00      0      0    153.5   0.00   0.00   0.52   0.37   2.96   4.00   3.34   0.72   0.00   0.00   0.00   0.00   0.00      0      0      0       0      51
 2000 288    68    65   11.0      3   1.11    729     24      0   1141    753      0    0.0  0.000      0      0  0.000  0.000  0.022  0.000   3.40   0.00   0.00      0      0    151.7   0.00   0.00   0.53   0.37   2.97   4.00   3.39   0.76   0.00   0.00   0.00   0.00   0.00      0      0      0       0      56
 2000 289    69    66   12.0      3   1.19    791     29      0   1153    820      0    0.0  0.000      0      0  0.000  0.000  0.022  0.000   3.38   0.00   0.00      0      0    149.8   0.00   0.00   0.54   0.37   2.98   4.00   3.45   0.81   0.00   0.00   0.00   0.00   0.00      0      0      0       0      62
 2000 290    70    67   12.0      3   1.29    874     37      0   1177    911      0    0.0  0.000      0      0  0.000  0.000  0.022  0.000   3.35   0.00   0.00      0      0    147.5   0.00   0.00   0.56   0.37   3.02   4.00   3.55   0.91   0.00   0.00   0.00   0.00   0.00      0      0      0       0      68
 2000 291    71    68   12.0      3   1.40    963     47      0   1199   1010      0    0.0  0.000      0      0  0.000  0.000  0.022  0.000   3.31   0.00   0.00      0      0    145.3   0.00   0.00   0.57   0.38   3.04   4.00   3.65   1.03   0.00   0.00   0.00   0.00   0.00      0      0      0       0      74
 2000 292    72    69   13.0      3   1.50   1050     61      0   1199   1111      0    0.0  0.000      0      0  0.000  0.000  0.022  0.000   3.28   0.00   0.00      0      0    143.3   0.00   0.00   0.59   0.38   3.03   4.00   3.65   1.05   0.00   0.00   0.00   0.00   0.00      0      0      0       0      80
 2000 293    73    70   13.0      3   1.60   1132     76      0   1243   1208      0    0.0  0.000      0      0  0.000  0.000  0.022  0.000   3.25   0.00   0.00      0      0    141.4   0.00   0.00   0.60   0.38   3.06   4.00   3.85   1.32   0.00   0.00   0.00   0.00   0.00      0      0      0       0      86
 2000 294    74    71   13.0      3   1.70   1220     96      0   1243   1316      0    0.0  0.000      0      0  0.000  0.000  0.022  0.000   3.21   0.00   0.00      0      0    139.6   0.00   0.00   0.61   0.38   3.05   3.99   3.86   1.35   0.00   0.00   0.00   0.00   0.00      0      0      0       0      92
 2000 295    75    72   14.0      3   1.83   1332    126      0   1328   1458      0    0.0  0.000      0      0  0.000  0.000  0.022  0.010   3.15   0.00   0.00      0      0    137.6   0.00   0.00   0.63   0.40   3.05   4.00   4.00   1.85   0.05   0.00   0.00   0.00   0.00      0      0      0       0      98
 2000 296    76    73   14.0      3   1.92   1414    151      0   1333   1565      0    0.0  0.000      0      0  0.000  0.000  0.022  0.083   3.13   0.00   0.00      0      0    136.0   0.00   0.00   0.64   0.39   2.88   3.78   3.82   1.83   0.07   0.00   0.00   0.00   0.00      0      0      0       0     105
 2000 297    77    74   14.0      3   2.00   1488    176      0   1345   1664      0    0.0  0.000      0      0  0.000  0.000  0.022  0.074   3.10   0.00   0.00      0      0    134.7   0.00   0.00   0.65   0.38   2.75   3.61   3.68   1.85   0.09   0.00   0.00   0.00   0.00      0      0      0       0     111
 2000 298    78    75   14.0      3   2.08   1560    204      0   1355   1763      0    0.0  0.000      0      0  0.000  0.000  0.022  0.228   3.08   0.00   0.00      0      0    133.5   0.00   0.00   0.66   0.37   2.67   3.49   3.60   1.88   0.12   0.00   0.00   0.00   0.00      0      0      0       0     118
 2000 299    79    76   15.0      3   2.13   1608    225      0   1431   1833      0    0.0  0.000      0      0  0.000  0.000  0.022  0.536   3.03   0.00   0.00      0      0    132.5   0.00   0.00   0.67   0.39   2.54   3.31   3.45   2.13   0.33   0.00   0.00   0.00   0.00      0      0      0       0     125
 2000 300    80    77   15.0      3   2.19   1663    252      0   1485   1914      0    0.0  0.000      0      0  0.000  0.000  0.022  0.551   3.01   0.00   0.00      0      0    131.5   0.00   0.00   0.69   0.41   2.41   3.13   3.25   2.22   0.51   0.00   0.00   0.00   0.00      0      0      0       0     132
 2000 301    81    78   15.0      3   2.27   1742    295      0   1654   2037      0    0.0  0.000      0      0  0.000  0.000  0.022  0.207   2.94   0.00   0.00      0      0    130.3   0.00   0.00   0.70   0.52   2.44   3.12   3.17   2.71   1.15   0.00   0.00   0.00   0.00      0      0      0       0     139
 2000 302    82    79   15.0      3   2.33   1801    330      0   1841   2132      0    0.0  0.000      0      0  0.000  0.000  0.022  0.059   2.91   0.00   0.00      0      0    129.4   0.00   0.00   0.71   0.67   2.54   3.21   3.16   3.13   1.92   0.00   0.00   0.00   0.00      0      0      0       0     148
 2000 303    83    80   15.0      3   2.37   1844    356      0   2027   2200      0    0.0  0.000      0      0  0.000  0.000  0.022  0.022   2.89   0.00   0.00      0      0    128.6   0.00   0.00   0.71   0.87   2.71   3.37   3.20   3.45   2.74   0.00   0.00   0.00   0.00      0      0      0       0     157
 2000 304    84    81   16.0      3   2.47   1937    418      0   2193   2356      0    0.0  0.000      0      0  0.000  0.000  0.022  0.000   2.78   0.00   0.00      0      0    127.4   0.00   0.00   0.73   1.07   2.91   3.57   3.28   3.61   3.52   0.00   0.00   0.00   0.00      0      0      0       0     167
 2000 305    85    82   16.0      3   2.58   2043    496      0   2332   2539      0    0.0  0.000      0      0  0.000  0.000  0.022  0.000   2.65   0.00   0.00      0      0    126.1   0.00   0.00   0.74   1.27   3.10   3.75   3.35   3.67   4.00   0.00   0.00   0.00   0.00      0      0      0       0     178
 2000 306    86    83   16.0      3   2.65   2118    556      0   2328   2673      0    0.0  0.000      0      0  0.000  0.000  0.022  0.000   2.58   0.00   0.00      0      0    125.1   0.00   0.00   0.75   1.28   3.09   3.74   3.34   3.66   4.00   0.00   0.00   0.00   0.00      0      0      0       0     190
 2000 307    87    84   17.0      3   2.74   2211    637      0   2416   2848      0    0.0  0.000      0      0  0.000  0.000  0.026  0.000   2.47   0.00   0.00      0      0    124.0   0.00   0.00   0.76   1.44   3.24   3.89   3.39   3.70   4.00   0.00   0.00   0.00   0.00      0      0      0       0     201
 2000 308    88    85   17.0      3   2.81   2289    709      0   2603   2998      0    0.0  0.000      0      0  0.000  0.000  0.029  0.011   2.39   0.00   0.00      0      0    123.0   0.00   0.00   0.77   1.81   3.61   4.00   3.54   3.83   4.00   0.00   0.00   0.00   0.00      0      0      0       0     213
 2000 309    89    86   17.0      3   2.88   2365    783      0   2686   3148      0    0.0  0.000      0      0  0.000  0.000  0.035  0.000   2.31   0.00   0.00      0      0    121.9   0.00   0.00   0.78   2.01   3.80   4.00   3.61   3.89   4.00   0.00   0.00   0.00   0.00      0      0      0       0     226
 2000 310    90    87   17.0      3   2.96   2449    872      0   2852   3321      0    0.0  0.000      0      0  0.000  0.000  0.038  0.000   2.22   0.00   0.00      0      0    120.7   0.00   0.00   0.79   2.46   4.00   4.00   3.79   4.00   4.00   0.00   0.00   0.00   0.00      0      0      0       0     240
 2000 311    91    88   18.0      3   3.05   2549    985      0   2970   3534      0    0.0  0.000      0      0  0.000  0.000  0.043  0.000   2.11   0.00   0.00      0      0    119.4   0.00   0.00   0.81   2.84   4.00   4.00   3.94   4.00   4.00   0.00   0.00   0.00   0.00      0      0      0       0     254
 2000 312    92    89   18.0      3   3.16   2682   1050      0   2966   3732      0    0.0  0.000      0      0  0.000  0.000  0.048  0.000   2.02   0.00   0.00      0      0    118.0   0.00   0.00   0.82   2.87   4.00   4.00   3.94   3.99   4.00   0.00   0.00   0.00   0.00      0      0      0       0     269
 2000 313    93    90   18.0      3   3.27   2811   1186      0   2966   3997      0    0.0  0.000      0      0  0.000  0.000  0.055  0.000   1.90   0.00   0.00      0      0    116.4   0.00   0.00   0.83   2.91   4.00   4.00   3.94   4.00   3.99   0.00   0.00   0.00   0.00      0      0      0       0     284
 2000 314    94    91   18.0      3   3.31   2873   1270      0   2959   4143      0    0.0  0.000      0      0  0.000  0.000  0.062  0.000   1.85   0.00   0.00      0      0    115.2   0.00   0.00   0.84   2.93   4.00   4.00   3.94   3.99   3.98   0.00   0.00   0.00   0.00      0      0      0       0     299
 2000 315    95    92   19.0      3   3.37   2965   1415      0   3053   4381      0    0.0  0.000      0      0  0.000  0.000  0.072  0.000   1.77   0.00   0.00      0      0    113.8   0.00   0.00   0.86   3.34   4.00   4.00   4.00   4.00   4.00   0.00   0.00   0.00   0.00      0      0      0       0     313
 2000 316    96    93   19.0      3   3.43   3056   1577      0   3119   4633      0    0.0  0.000      0      0  0.000  0.000  0.076  0.000   1.68   0.00   0.00      0      0    112.3   0.00   0.00   0.87   3.63   4.00   4.00   4.00   4.00   4.00   0.00   0.00   0.00   0.00      0      0      0       0     329
 2000 317    97    94   19.0      3   3.48   3144   1754      0   3173   4898      0    0.0  0.000      0      0  0.000  0.000  0.085  0.000   1.60   0.00   0.00      0      0    110.8   0.00   0.00   0.89   3.88   4.00   4.00   4.00   4.00   4.00   0.00   0.00   0.00   0.00      0      0      0       0     344
 2000 318    98    95   20.0      3   3.49   3197   1869      0   3255   5066      0    0.0  0.000      0      0  0.000  0.000  0.096  0.000   1.56   0.00   0.00      0      0    109.3   0.00   0.00   0.90   4.00   4.00   4.00   4.00   4.00   4.00   0.00   0.00   0.00   0.00      0      0      0       0     360
 2000 319    99    96   20.0      3   3.47   3219   1917      0   3391   5136      0    0.0  0.000      0      0  0.000  0.000  0.109  0.000   1.55   0.00   0.00      0      0    107.7   0.00   0.00   0.90   4.00   4.00   4.00   4.00   4.00   4.00   0.00   0.00   0.00   0.00      0      0      0       0     376
 2000 320   100    97   20.0      3   3.43   3237   1958      0   3510   5195      0    0.0  0.000      0      0  0.000  0.000  0.116  0.000   1.54   0.00   0.00      0      0    106.1   0.00   0.00   0.90   4.00   4.00   4.00   4.00   4.00   4.00   0.00   0.00   0.00   0.00      0      0      0       0     393
 2000 321   101    98   20.0      3   3.42   3270   2037      0   3703   5308      0    0.0  0.000      0      0  0.000  0.000  0.116  0.000   1.52   0.00   0.00      0      0    104.5   0.00   0.00   0.91   4.00   4.00   4.00   4.00   4.00   4.00   0.40   0.00   0.00   0.00      0      0      0       0     411
 2000 322   102    99   20.0      3   3.41   3316   2150      0   3872   5467      0    0.0  0.000      0      0  0.000  0.000  0.114  0.000   1.50   0.00   0.00      0      0    102.9   0.00   0.00   0.92   4.00   4.00   4.00   4.00   4.00   4.00   0.99   0.00   0.00   0.00      0      0      0       0     429
 2000 323   103   100   20.0      3   3.42   3367   2283      0   4028   5650      0    0.0  0.000      0      0  0.000  0.000  0.111  0.000   1.48   0.00   0.00      0      0    101.4   0.00   0.00   0.93   4.00   4.00   4.00   4.00   4.00   4.00   1.67   0.00   0.00   0.00      0      0      0       0     449
 2000 324   104   101   21.0      3   3.42   3426   2441      0   4154   5867      0    0.0  0.000      0      0  0.000  0.000  0.111  0.000   1.45   0.00   0.00      0      0    100.0   0.00   0.00   0.94   4.00   4.00   4.00   4.00   4.00   4.00   2.33   0.00   0.00   0.00      0      0      0       0     469
 2000 325   105   102   21.0      3   3.41   3459   2537      0   4351   5996      0    0.0  0.000      0      0  0.000  0.000  0.113  0.000   1.43   0.00   0.00      0      0     98.5   0.00   0.00   0.95   4.00   4.00   4.00   4.00   4.00   4.00   3.33   0.00   0.00   0.00      0      0      0       0     490
 2000 326   106   103   21.0      3   3.40   3498   2651      0   4523   6149      0    0.0  0.000      0      0  0.000  0.000  0.118  0.000   1.42   0.00   0.00      0      0     97.1   0.00   0.00   0.96   4.00   4.00   4.00   4.00   4.00   4.00   4.00   0.00   0.00   0.00      0      0      0       0     511
 2000 327   107   104   21.0      3   3.40   3553   2810      0   4603   6363      0    0.0  0.000      0      0  0.000  0.000  0.118  0.000   1.39   0.00   0.00      0      0     95.7   0.00   0.00   0.97   4.00   4.00   4.00   4.00   4.00   4.00   4.00   0.00   0.00   0.00      0      0      0       0     534
 2000 328   108   105   21.0      3   3.41   3620   3003      0   4674   6623      0    0.0  0.000      0      0  0.000  0.000  0.118  0.000   1.35   0.00   0.00      0      0     94.3   0.00   0.00   0.99   4.00   4.00   4.00   4.00   4.00   4.00   4.00   0.00   0.00   0.00      0      0      0       0     557
 2000 329   109   106   21.0      3   3.39   3655   3105      0   4727   6760      0    0.0  0.000      0      0  0.000  0.000  0.123  0.000   1.33   0.00   0.00      0      0     92.9   0.00   0.00   1.00   4.00   4.00   4.00   4.00   4.00   4.00   4.00   0.00   0.00   0.00      0      0      0       0     580
 2000 330   110   107   21.0      3   3.37   3686   3195      0   4899   6881      0    0.0  0.000      0      0  0.000  0.000  0.131  0.000   1.32   0.00   0.00      0      0     91.4   0.00   0.00   1.00   4.00   4.00   4.00   4.00   4.00   4.00   4.00   0.00   0.00   0.00      0      0      0       0     604
 2000 331   111   108   21.0      3   3.36   3734   3331      0   5051   7065      0    0.0  0.000      0      0  0.000  0.000  0.132  0.000   1.30   0.00   0.00      0      0     89.9   0.00   0.00   1.02   4.00   4.00   4.00   4.00   4.00   4.00   4.00   0.00   0.00   0.00      0      0      0       0     629
 2000 332   112   109   21.0      3   3.35   3784   3476      0   5037   7259      0    0.0  0.000      0      0  0.000  0.000  0.132  0.000   1.27   0.00   0.00      0      0     88.5   0.00   0.00   1.03   4.00   4.00   4.00   3.99   3.99   3.99   4.00   0.00   0.00   0.00      0      0      0       0     654
 2000 333   113   110   21.0      3   3.33   3819   3577      0   5019   7396      0    0.0  0.000      0      0  0.000  0.000  0.135  0.000   1.26   0.00   0.00      0      0     87.1   0.00   0.00   1.04   4.00   4.00   4.00   3.98   3.98   3.97   4.00   0.00   0.00   0.00      0      0      0       0     679
 2000 334   114   111   21.0      4   3.27   3780   3014      0   5061   7479      0    0.0  0.000    684      0  0.000  0.000  0.139  0.000   1.38   0.00   0.09      0    684     86.5   0.00   0.00   1.05   4.00   4.00   4.00   4.00   4.00   4.00   4.00   0.00   0.00   0.00      0      0      0       0     704
 2000 335   115   112   21.0      4   3.21   3739   3048      0   5238   7556      0    0.0  0.000    769      0  0.000  0.000  0.140  0.000   1.39   0.00   0.10      0    769     85.9   0.00   0.00   1.06   4.00   4.00   4.00   4.00   4.00   4.00   4.00   0.00   0.00   0.00      0      0      0       0     729
 2000 336   116   113   21.0      4   3.17   3697   3086      0   5377   7645      0    0.0  0.000    862      0  0.000  0.000  0.107  0.000   1.40   0.00   0.11      0    862     85.7   0.00   0.00   1.06   4.00   4.00   4.00   4.00   4.00   4.00   4.00   0.00   0.00   0.00      0      0      0       0     756
 2000 337   117   114   21.0      4   3.13   3652   3138      0   5531   7785      0    0.0  0.000    994      0  0.000  0.000  0.101  0.000   1.41   0.00   0.13      0    994     85.7   0.00   0.00   1.07   4.00   4.00   4.00   4.00   4.00   4.00   4.00   0.00   0.00   0.00      0      0      0       0     782
 2000 338   118   115   21.0      4   3.09   3606   3195      0   5582   7935      0    0.0  0.000   1135      0  0.000  0.000  0.095  0.000   1.41   0.00   0.14      0   1135     85.8   0.00   0.00   1.09   4.00   4.00   4.00   4.00   4.00   4.00   4.00   0.00   0.00   0.00      0      0      0       0     810
 2000 339   119   116   21.0      4   3.06   3557   3243      0   5584   8054      0    0.0  0.000   1255      0  0.000  0.000  0.091  0.000   1.42   0.00   0.16      0   1255     85.9   0.00   0.00   1.09   4.00   4.00   4.00   4.00   4.00   4.00   4.00   0.03   0.00   0.00      0      0      0       0     838
 2000 340   120   117   21.0      4   3.02   3506   3288      0   5733   8164      0    0.0  0.000   1369      0  0.000  0.000  0.088  0.000   1.43   0.00   0.17      0   1369     86.2   0.00   0.00   1.10   4.00   4.00   4.00   4.00   4.00   4.00   4.00   0.30   0.00   0.00      0      0      0       0     866
 2000 341   121   118   21.0      4   2.99   3453   3351      0   5841   8331      0    0.0  0.000   1527      0  0.000  0.000  0.082  0.000   1.44   0.00   0.18      0   1527     86.6   0.00   0.00   1.11   4.00   4.00   4.00   4.00   4.00   4.00   4.00   0.58   0.00   0.00      0      0      0       0     895
 2000 342   122   119   21.0      4   2.96   3397   3430      0   5908   8550      0    0.0  0.000   1723      0  0.000  0.000  0.076  0.000   1.44   0.00   0.20      0   1723     87.2   0.00   0.00   1.12   4.00   4.00   4.00   4.00   4.00   4.00   4.00   0.83   0.00   0.00      0      0      0       0     924
 2000 343   123   120   21.0      4   2.94   3338   3517      0   5905   8795      0    0.0  0.000   1940      0  0.000  0.000  0.070  0.000   1.45   0.00   0.22      0   1940     88.0   0.00   0.00   1.13   4.00   4.00   4.00   4.00   4.00   4.00   3.99   0.90   0.00   0.00      0      0      0       0     953
 2000 344   124   121   21.0      4   2.91   3275   3608      0   5999   9051      0    0.0  0.000   2168      0  0.000  0.000  0.064  0.000   1.45   0.00   0.24      0   2168     89.0   0.00   0.00   1.14   4.00   4.00   4.00   4.00   4.00   4.00   4.00   1.31   0.00   0.00      0      0      0       0     983
 2000 345   125   122   21.0      4   2.89   3210   3686      0   6056   9259      0    0.0  0.000   2363      0  0.000  0.000  0.060  0.000   1.46   0.00   0.26      0   2363     90.1   0.00   0.00   1.15   4.00   4.00   4.00   4.00   4.00   4.00   4.00   1.61   0.00   0.00      0      0      0       0    1013
 2000 346   126   123   21.0      4   2.87   3141   3770      0   6039   9485      0    0.0  0.000   2573      0  0.000  0.000  0.056  0.000   1.46   0.00   0.27      0   2573     91.4   0.00   0.00   1.16   4.00   4.00   4.00   3.99   3.99   3.99   3.99   1.65   0.00   0.00      0      0      0       0    1043
 2000 347   127   124   21.0      5   2.84   3141   3770    267   6043   9752   3402    7.9  0.027   2841      7  0.000  0.000  0.098  0.000   1.42   9.41   0.29      0   2841     90.3   0.00   0.00   1.18   4.00   4.00   4.00   4.00   4.00   3.99   3.98   1.77   0.00   0.00      0      0      0       0    1073
 2000 348   128   125   21.0      5   2.80   3141   3770    523   6071  10007   3402   15.4  0.052   3096      7  0.000  0.000  0.108  0.000   1.37  16.88   0.31      0   3096     89.1   0.00   0.00   1.19   4.00   4.00   4.00   4.00   4.00   4.00   3.99   1.99   0.00   0.00      0      0      0       0    1104
 2000 349   129   126   21.0      5   2.76   3141   3770    778   6073  10262   3402   22.9  0.076   3351      7  0.000  0.000  0.114  0.000   1.33  23.21   0.33      0   3351     87.8   0.00   0.00   1.20   4.00   4.00   4.00   4.00   4.00   4.00   3.99   2.11   0.00   0.00      0      0      0       0    1134
 2000 350   130   127   21.0      5   2.72   3141   3770   1032   6072  10516   3402   30.3  0.098   3605      7  0.000  0.000  0.120  0.091   1.29  28.62   0.34      0   3605     86.5   0.00   0.00   1.21   4.00   4.00   4.00   4.00   4.00   4.00   3.99   2.22   0.00   0.00      0      0      0       0    1164
 2000 351   131   128   21.0      5   2.67   3141   3770   1141   6147  10625   3402   33.5  0.107   3714      7  0.000  0.000  0.130  0.031   1.28  30.71   0.35      0   3714     85.1   0.00   0.00   1.22   4.00   4.00   4.00   4.00   4.00   4.00   4.00   2.61   0.00   0.00      0      0      0       0    1195
 2000 352   132   129   21.0      5   2.63   3141   3770   1294   6208  10779   3402   38.0  0.120   3868      7  0.000  0.000  0.130  0.000   1.26  33.46   0.36      0   3868     83.7   0.00   0.00   1.22   4.00   4.00   4.00   4.00   4.00   4.00   4.00   2.93   0.00   0.00      0      0      0       0    1225
 2000 353   133   130   21.0      5   2.59   3141   3770   1522   6251  11007   3402   44.8  0.138   4096      7  0.000  0.000  0.130  0.000   1.23  37.17   0.37      0   4096     82.3   0.00   0.00   1.23   4.00   4.00   4.00   4.00   4.00   4.00   4.00   3.19   0.00   0.00      0      0      0       0    1256
 2000 354   134   131   21.0      5   2.54   3141   3770   1702   6283  11186   3402   50.0  0.152   4275      7  0.000  0.000  0.137  0.000   1.20  39.81   0.38      0   4275     80.9   0.00   0.00   1.24   4.00   4.00   4.00   4.00   4.00   4.00   4.00   3.39   0.00   0.00      0      0      0       0    1288
 2000 355   135   132   21.0      5   2.50   3141   3770   1922   6315  11406   3402   56.5  0.168   4495      7  0.000  0.000  0.140  0.000   1.17  42.75   0.39      0   4495     79.5   0.00   0.00   1.25   4.00   4.00   4.00   4.00   4.00   4.00   4.00   3.58   0.00   0.00      0      0      0       0    1319
 2000 356   136   133   21.0      5   2.45   3141   3757   2089   6284  11560   3402   61.4  0.181   4662      7  0.000  0.000  0.147  0.000   1.15  44.80   0.40      0   4662     78.0   0.00   0.00   1.25   4.00   4.00   4.00   4.00   4.00   4.00   4.00   3.58   0.00   0.00      0      0      0       0    1351
 2000 357   137   134   21.0      5   2.41   3141   3770   2344   6304  11828   3402   68.9  0.198   4917      7  0.000  0.000  0.149  0.000   1.11  47.67   0.42      0   4917     76.6   0.00   0.00   1.25   4.00   4.00   4.00   4.00   4.00   4.00   4.00   3.70   0.00   0.00      0      0      0       0    1382
 2000 358   138   135   21.0      5   2.36   3141   3770   2502   6281  11986   3402   73.5  0.209   5075      7  0.000  0.000  0.158  0.000   1.09  49.29   0.42      0   5075     75.1   0.00   0.00   1.25   4.00   4.00   4.00   3.99   3.99   3.99   3.98   3.70   0.00   0.00      0      0      0       0    1414
 2000 359   139   136   21.0      5   2.31   3141   3770   2678   6315  12162   3402   78.7  0.220   5251      7  0.000  0.000  0.162  0.000   1.07  51.00   0.43      0   5251     73.5   0.00   0.00   1.25   4.00   4.00   4.00   4.00   4.00   4.00   4.00   3.82   0.00   0.00      0      0      0       0    1445
 2000 360   140   137   21.0      5   2.26   3141   3770   2933   6326  12417   3402   86.2  0.236   5506      7  0.000  0.000  0.164  0.000   1.03  53.27   0.44      0   5506     72.0   0.00   0.00   1.25   4.00   4.00   4.00   4.00   4.00   4.00   4.00   3.88   0.00   0.00      0      0      0       0    1477
 2000 361   141   138   21.0      5   2.21   3141   3770   3188   6346  12673   3402   93.7  0.252   5761      7  0.000  0.000  0.170  0.000   0.99  55.34   0.45      0   5761     70.5   0.00   0.00   1.25   4.00   4.00   4.00   4.00   4.00   4.00   4.00   3.93   0.00   0.00      0      0      0       0    1508
 2000 362   142   139   21.0      5   2.17   3141   3648   3443   6314  12806   3402  101.2  0.269   6017      7  0.000  0.000  0.180  0.000   0.97  57.23   0.47      0   6017     68.9   0.00   0.00   1.25   4.00   4.00   4.00   4.00   4.00   4.00   4.00   3.93   0.00   0.00      0      0      0       0    1540
 2000 363   143   140   21.0      5   2.11   3141   3651   3668   6284  13034   3402  107.8  0.281   6242      7  0.000  0.000  0.190  0.086   0.94  58.77   0.48      0   6242     67.3   0.00   0.00   1.25   3.98   3.98   3.98   3.98   3.98   3.98   3.98   3.91   0.00   0.00      0      0      0       0    1571
 2000 364   144   141   21.0      5   2.06   3141   3662   3871   6258  13247   3402  113.8  0.292   6444      7  0.000  0.000  0.191  0.094   0.92  60.07   0.49      0   6444     65.7   0.00   0.00   1.25   3.98   3.98   3.98   3.97   3.97   3.97   3.96   3.89   0.00   0.00      0      0      0       0    1603
 2000 365   145   142   21.0      5   2.01   3141   3764   4081   6277  13560   3402  120.0  0.301   6654      7  0.000  0.000  0.197  0.028   0.88  61.33   0.49      0   6654     64.1   0.00   0.00   1.25   4.00   4.00   4.00   4.00   4.00   4.00   3.98   3.90   0.00   0.00      0      0      0       0    1634
 2000 366   146   143   21.0      5   1.96   3141   3770   4336   6286  13821   3402  127.5  0.314   6910      7  0.000  0.000  0.212  0.000   0.85  62.76   0.50      0   6910     62.4   0.00   0.00   1.25   4.00   4.00   4.00   4.00   4.00   4.00   3.99   3.89   0.00   0.00      0      0      0       0    1666
 2001 001   147   144   21.0      5   1.91   3141   3770   4591   6291  14076   3402  135.0  0.326   7165      7  0.000  0.000  0.254  0.000   0.82  64.08   0.51      0   7165     60.7   0.00   0.00   1.25   4.00   4.00   4.00   4.00   4.00   4.00   4.00   3.89   0.00   0.00      0      0      0       0    1697
 2001 002   148   145   21.0      5   1.85   3141   3770   4847   6289  14331   3402  142.5  0.338   7420      7  0.000  0.000  0.280  0.000   0.80  65.32   0.52      0   7420     59.0   0.00   0.00   1.25   4.00   4.00   4.00   4.00   4.00   4.00   4.00   3.88   0.00   0.00      0      0      0       0    1728
 2001 003   149   146   21.0      5   1.80   3141   3770   5102   6283  14586   3402  150.0  0.350   7675      7  0.000  0.000  0.305  0.000   0.77  66.47   0.53      0   7675     57.3   0.00   0.00   1.25   4.00   4.00   4.00   4.00   4.00   4.00   4.00   3.87   0.00   0.00      0      0      0       0    1760
 2001 004   150   147   21.0      5   1.74   3141   3734   5357   6251  14806   3402  157.5  0.362   7930      7  0.000  0.000  0.327  0.000   0.75  67.55   0.54      0   7930     55.5   0.00   0.00   1.25   4.00   4.00   4.00   4.00   4.00   4.00   4.00   3.87   0.00   0.00      0      0      0       0    1791
 2001 005   151   148   21.0      5   1.69   3141   3767   5612   6236  15094   3402  165.0  0.372   8185      7  0.000  0.000  0.352  0.000   0.72  68.56   0.54      0   8185     53.8   0.00   0.00   1.25   4.00   4.00   4.00   4.00   4.00   4.00   3.99   3.86   0.00   0.00      0      0      0       0    1823
 2001 006   152   149   21.0      5   1.64   3141   3770   5867   6215  15352   3402  172.5  0.382   8440      7  0.000  0.000  0.371  0.000   0.69  69.51   0.55      0   8440     52.1   0.00   0.00   1.25   4.00   4.00   4.00   3.99   3.99   3.99   3.98   3.84   0.00   0.00      0      0      0       0    1854
 2001 007   153   150   21.0      5   1.58   3141   3625   6122   6184  15462   3402  180.0  0.396   8696      7  0.000  0.000  0.401  0.000   0.68  70.41   0.56      0   8696     50.3   0.00   0.00   1.25   4.00   4.00   4.00   3.99   3.99   3.99   3.98   3.84   0.00   0.00      0      0      0       0    1885
 2001 008   154   151   21.0      5   1.53   3141   3549   6377   6153  15641   3402  187.5  0.408   8951      7  0.000  0.000  0.432  0.000   0.67  71.25   0.57      0   8951     48.6   0.00   0.00   1.25   4.00   4.00   4.00   3.99   3.99   3.99   3.98   3.84   0.00   0.00      0      0      0       0    1916
 2001 009   155   152   21.0      5   1.47   3141   3519   6633   6122  15867   3402  195.0  0.418   9206      7  0.000  0.000  0.435  0.213   0.65  72.05   0.58      0   9206     46.9   0.00   0.00   1.25   4.00   4.00   4.00   3.99   3.99   3.99   3.98   3.84   0.00   0.00      0      0      0       0    1947
 2001 010   156   153   21.0      5   1.42   3141   3402   6823   6092  15940   3402  200.6  0.428   9397      7  0.000  0.000  0.457  0.261   0.64  72.62   0.59      0   9397     45.2   0.00   0.00   1.25   4.00   4.00   4.00   3.99   3.99   3.99   3.98   3.84   0.00   0.00      0      0      0       0    1977
 2001 011   157   154   21.0      5   1.37   3141   3448   6981   6084  16144   3402  205.2  0.432   9554      7  0.000  0.000  0.475  0.140   0.63  73.07   0.59      0   9554     43.6   0.00   0.00   1.25   4.00   4.00   4.00   4.00   4.00   3.99   3.97   3.83   0.00   0.00      0      0      0       0    2008
 2001 012   158   155   21.0      5   1.32   3141   3502   7118   6081  16335   3402  209.2  0.436   9691      7  0.000  0.000  0.468  0.047   0.62  73.45   0.59      0   9691     42.0   0.00   0.00   1.25   4.00   4.00   4.00   4.00   4.00   4.00   3.98   3.82   0.00   0.00      0      0      0       0    2038
 2001 013   159   156   21.0      5   1.27   3141   3466   7329   6050  16509   3402  215.4  0.444   9902      7  0.000  0.000  0.480  0.012   0.61  74.01   0.60      0   9902     40.5   0.00   0.00   1.25   4.00   4.00   4.00   4.00   4.00   4.00   3.98   3.82   0.00   0.00      0      0      0       0    2068
 2001 014   160   157   21.0      5   1.22   3141   3328   7584   6020  16626   3402  222.9  0.456  10157      7  0.000  0.000  0.507  0.097   0.60  74.66   0.61      0  10157     38.9   0.00   0.00   1.25   4.00   4.00   4.00   4.00   4.00   4.00   3.98   3.82   0.00   0.00      0      0      0       0    2099
 2001 015   161   158   21.0      5   1.18   3141   3237   7839   5990  16790   3402  230.4  0.467  10412      7  0.000  0.000  0.533  0.055   0.59  75.29   0.62      0  10412     37.4   0.00   0.00   1.25   4.00   4.00   4.00   4.00   4.00   4.00   3.98   3.82   0.00   0.00      0      0      0       0    2129
 2001 016   162   159   21.0      5   1.13   3141   3124   8094   5960  16932   3402  237.9  0.478  10667      7  0.000  0.000  0.541  0.030   0.58  75.88   0.63      0  10667     35.9   0.00   0.00   1.25   4.00   4.00   4.00   4.00   4.00   4.00   3.98   3.82   0.00   0.00      0      0      0       0    2159
 2001 017   163   160   21.0      5   1.08   3141   2956   8349   5930  17019   3402  245.4  0.491  10922      7  0.000  0.000  0.552  0.011   0.58  76.44   0.64      0  10922     34.5   0.00   0.00   1.25   4.00   4.00   4.00   4.00   4.00   4.00   3.98   3.82   0.00   0.00      0      0      0       0    2189
 2001 018   164   161   21.0      5   1.04   3141   2772   8604   5901  17091   3402  252.9  0.503  11178      7  0.000  0.000  0.552  0.003   0.58  76.98   0.65      0  11178     33.1   0.00   0.00   1.25   4.00   4.00   4.00   4.00   4.00   4.00   3.98   3.82   0.00   0.00      0      0      0       0    2218
 2001 019   165   162   21.0      5   1.04   3141   2772   8604   5901  17091   3402  252.9  0.503  11178      7  0.000  0.000  0.552  0.003   0.58  76.98   0.65      0  11178     33.1   0.00   0.00   1.25   4.00   4.00   4.00   4.00   4.00   4.00   3.98   3.82   0.00   0.00      0      0      0       0    2218
 2001 020   166   163   21.0      5   1.04   3141   2772   8604   5901  17091   3402  252.9  0.503  11178      7  0.000  0.000  0.552  0.003   0.58  76.98   0.65      0  11178     33.1   0.00   0.00   1.25   4.00   4.00   4.00   4.00   4.00   4.00   3.98   3.82   0.00   0.00      0      0      0       0    2218
 2001 021   167   164   21.0      5   1.04   3141   2772   8604   5901  17091   3402  252.9  0.503  11178      7  0.000  0.000  0.552  0.003   0.58  76.98   0.65      0  11178     33.1   0.00   0.00   1.25   4.00   4.00   4.00   4.00   4.00   4.00   3.98   3.82   0.00   0.00      0      0      0       0    2218
 2001 022   168   165   21.0      5   1.04   3141   2772   8604   5901  17091   3402  252.9  0.503  11178      7  0.000  0.000  0.552  0.003   0.58  76.98   0.65      0  11178     33.1   0.00   0.00   1.25   4.00   4.00   4.00   4.00   4.00   4.00   3.98   3.82   0.00   0.00      0      0      0       0    2218

*DSSAT Cropping System Model Ver. 4.0.2.000               Aug 11, 2016; 14:51:55

*RUN   2        : UYMZ                    
 MODEL          : MZCER040 - Maize           
 EXPERIMENT     : UYMZ0138 MZ    late to create DSS                             
 TREATMENT  1   : UYMZ                    

@YEAR DOY   DAS   DAP   L#SD   GSTD   LAID   LWAD   SWAD   GWAD   RWAD   CWAD   G#AD   GWGD   HIAD   PWAD   P#AD   WSPD   WSGD   NSTD   EWSD   LN%D   SH%D   HIPD   PWDD   PWTD     SLAD   CHTD   CWID   RDPD   RL1D   RL2D   RL3D   RL4D   RL5D   RL6D   RL7D   RL8D   RL9D   RL10   CDAD   LDAD   SDAD   SNW0C   SNW1C
 2001 223     3     0    0.0      0   0.00      0      0      0      0      0      0    0.0  0.000      0      0  0.000  0.000  0.000  0.000   0.00   0.00   0.00      0      0      0.0   0.00   0.00   0.03   0.00   0.00   0.00   0.00   0.00   0.00   0.00   0.00   0.00   0.00      0      0      0       0       0
 2001 224     4     1    0.0      0   0.00      0      0      0      0      0      0    0.0  0.000      0      0  0.000  0.000  0.000  0.000   0.00   0.00   0.00      0      0      0.0   0.00   0.00   0.04   0.00   0.00   0.00   0.00   0.00   0.00   0.00   0.00   0.00   0.00      0      0      0       0       0
 2001 225     5     2    0.0      0   0.00      0      0      0      0      0      0    0.0  0.000      0      0  0.000  0.000  0.000  0.000   0.00   0.00   0.00      0      0      0.0   0.00   0.00   0.06   0.00   0.00   0.00   0.00   0.00   0.00   0.00   0.00   0.00   0.00      0      0      0       0       0
 2001 226     6     3    0.0      0   0.00      0      0      0      0      0      0    0.0  0.000      0      0  0.000  0.000  0.000  0.000   0.00   0.00   0.00      0      0      0.0   0.00   0.00   0.08   0.00   0.00   0.00   0.00   0.00   0.00   0.00   0.00   0.00   0.00      0      0      0       0       0
 2001 227     7     4    0.0      0   0.00      0      0      0      0      0      0    0.0  0.000      0      0  0.000  0.000  0.000  0.000   0.00   0.00   0.00      0      0      0.0   0.00   0.00   0.09   0.00   0.00   0.00   0.00   0.00   0.00   0.00   0.00   0.00   0.00      0      0      0       0       0
 2001 228     8     5    0.0      0   0.00      0      0      0      0      0      0    0.0  0.000      0      0  0.000  0.000  0.000  0.000   0.00   0.00   0.00      0      0      0.0   0.00   0.00   0.11   0.00   0.00   0.00   0.00   0.00   0.00   0.00   0.00   0.00   0.00      0      0      0       0       0
 2001 229     9     6    0.0      0   0.00      0      0      0      0      0      0    0.0  0.000      0      0  0.000  0.000  0.000  0.000   0.00   0.00   0.00      0      0      0.0   0.00   0.00   0.12   0.00   0.00   0.00   0.00   0.00   0.00   0.00   0.00   0.00   0.00      0      0      0       0       0
 2001 230    10     7    1.0      1   0.00     14     14      0     14     28      0    0.0  0.000      0      0  0.000  0.000  0.012  0.000   4.40   0.00   0.00      0      0     13.5   0.00   0.00   0.13   0.26   0.10   0.00   0.00   0.00   0.00   0.00   0.00   0.00   0.00      0      0      0       0       0
 2001 231    11     8    1.0      1   0.00     14     14      0     14     28      0    0.0  0.000      0      0  0.000  0.000  0.019  0.000   4.56   0.00   0.00      0      0     21.0   0.00   0.00   0.14   0.25   0.09   0.00   0.00   0.00   0.00   0.00   0.00   0.00   0.00      0      0      0       0       0
 2001 232    12     9    2.0      1   0.00     14     14      0     14     28      0    0.0  0.000      0      0  0.000  0.000  0.000  0.000   4.55   0.00   0.00      0      0     26.0   0.00   0.00   0.14   0.25   0.10   0.00   0.00   0.00   0.00   0.00   0.00   0.00   0.00      0      0      0       0       0
 2001 233    13    10    2.0      1   0.00     14     14      0     15     28      0    0.0  0.000      0      0  0.000  0.000  0.000  0.000   4.54   0.00   0.00      0      0     26.7   0.00   0.00   0.14   0.25   0.10   0.00   0.00   0.00   0.00   0.00   0.00   0.00   0.00      0      0      0       0       0
 2001 234    14    11    2.0      1   0.00     14     14      0     15     28      0    0.0  0.000      0      0  0.000  0.000  0.000  0.000   4.53   0.00   0.00      0      0     34.4   0.00   0.00   0.15   0.25   0.11   0.00   0.00   0.00   0.00   0.00   0.00   0.00   0.00      0      0      0       0       0
 2001 235    15    12    2.0      1   0.01     14     14      0     15     28      0    0.0  0.000      0      0  0.000  0.000  0.000  0.000   4.53   0.00   0.00      0      0     42.5   0.00   0.00   0.15   0.25   0.12   0.00   0.00   0.00   0.00   0.00   0.00   0.00   0.00      0      0      0       0       0
 2001 236    16    13    2.0      1   0.01     14     14      0     16     28      0    0.0  0.000      0      0  0.000  0.000  0.000  0.000   4.53   0.00   0.00      0      0     55.7   0.00   0.00   0.16   0.25   0.12   0.00   0.00   0.00   0.00   0.00   0.00   0.00   0.00      0      0      0       0       0
 2001 237    17    14    2.0      1   0.01     14     14      0     17     28      0    0.0  0.000      0      0  0.000  0.000  0.000  0.000   4.48   0.00   0.00      0      0     70.6   0.00   0.00   0.17   0.25   0.14   0.00   0.00   0.00   0.00   0.00   0.00   0.00   0.00      0      0      0       0       0
 2001 238    18    15    3.0      1   0.01     14     14      0     18     28      0    0.0  0.000      0      0  0.000  0.000  0.000  0.000   4.48   0.00   0.00      0      0    101.3   0.00   0.00   0.18   0.25   0.14   0.00   0.00   0.00   0.00   0.00   0.00   0.00   0.00      0      0      0       0       0
 2001 239    19    16    3.0      1   0.02     14     14      0     19     28      0    0.0  0.000      0      0  0.000  0.000  0.000  0.000   4.43   0.00   0.00      0      0    115.0   0.00   0.00   0.19   0.25   0.16   0.01   0.00   0.00   0.00   0.00   0.00   0.00   0.00      0      0      0       0       0
 2001 240    20    17    3.0      1   0.02     14     14      0     20     28      0    0.0  0.000      0      0  0.000  0.000  0.000  0.007   4.42   0.00   0.00      0      0    120.0   0.00   0.00   0.19   0.25   0.17   0.01   0.00   0.00   0.00   0.00   0.00   0.00   0.00      0      0      0       0       0
 2001 241    21    18    3.0      1   0.02     14     14      0     23     28      0    0.0  0.000      0      0  0.000  0.000  0.000  0.005   4.40   0.00   0.00      0      0    141.4   0.00   0.00   0.20   0.26   0.20   0.03   0.00   0.00   0.00   0.00   0.00   0.00   0.00      0      0      0       0       1
 2001 242    22    19    4.0      1   0.03     14     14      0     26     28      0    0.0  0.000      0      0  0.000  0.000  0.000  0.000   4.37   0.00   0.00      0      0    244.0   0.00   0.00   0.21   0.27   0.22   0.04   0.00   0.00   0.00   0.00   0.00   0.00   0.00      0      0      0       0       1
 2001 243    23    20    4.0      1   0.05     15     14      0     27     29      0    0.0  0.000      0      0  0.000  0.000  0.000  0.000   4.25   0.00   0.00      0      0    337.2   0.00   0.00   0.22   0.26   0.22   0.05   0.00   0.00   0.00   0.00   0.00   0.00   0.00      0      0      0       0       1
 2001 244    24    21    4.0      1   0.06     20     14      0     28     34      0    0.0  0.000      0      0  0.000  0.000  0.000  0.000   3.64   0.00   0.00      0      0    318.3   0.00   0.00   0.23   0.23   0.20   0.05   0.00   0.00   0.00   0.00   0.00   0.00   0.00      0      0      0       0       1
 2001 245    25    22    5.0      1   0.07     22     14      0     29     36      0    0.0  0.000      0      0  0.000  0.000  0.000  0.457   4.03   0.00   0.00      0      0    311.9   0.00   0.00   0.24   0.22   0.20   0.05   0.00   0.00   0.00   0.00   0.00   0.00   0.00      0      0      0       0       1
 2001 246    26    23    5.0      1   0.08     25     14      0     31     39      0    0.0  0.000      0      0  0.000  0.000  0.000  0.448   4.03   0.00   0.00      0      0    306.1   0.00   0.00   0.24   0.20   0.19   0.06   0.00   0.00   0.00   0.00   0.00   0.00   0.00      0      0      0       0       1
 2001 247    27    24    5.0      1   0.08     26     14      0     32     40      0    0.0  0.000      0      0  0.000  0.000  0.000  0.284   4.08   0.00   0.00      0      0    301.6   0.00   0.00   0.25   0.19   0.19   0.07   0.00   0.00   0.00   0.00   0.00   0.00   0.00      0      0      0       0       1
 2001 248    28    25    5.0      1   0.09     29     14      0     35     43      0    0.0  0.000      0      0  0.000  0.000  0.000  0.128   3.97   0.00   0.00      0      0    295.1   0.00   0.00   0.25   0.19   0.21   0.10   0.00   0.00   0.00   0.00   0.00   0.00   0.00      0      0      0       0       1
 2001 249    29    26    5.0      1   0.10     34     14      0     39     48      0    0.0  0.000      0      0  0.000  0.000  0.000  0.056   3.82   0.00   0.00      0      0    286.2   0.00   0.00   0.26   0.18   0.22   0.13   0.00   0.00   0.00   0.00   0.00   0.00   0.00      0      0      0       0       2
 2001 250    30    27    5.0      1   0.11     39     14      0     41     53      0    0.0  0.000      0      0  0.000  0.000  0.000  0.234   3.82   0.00   0.00      0      0    278.2   0.00   0.00   0.27   0.17   0.22   0.14   0.00   0.00   0.00   0.00   0.00   0.00   0.00      0      0      0       0       2
 2001 251    31    28    6.0      1   0.12     44     14      0     56     58      0    0.0  0.000      0      0  0.000  0.000  0.000  0.172   3.86   0.00   0.00      0      0    271.7   0.00   0.00   0.27   0.17   0.27   0.29   0.00   0.00   0.00   0.00   0.00   0.00   0.00      0      0      0       0       2
 2001 252    32    29    6.0      1   0.13     47     14      0     62     61      0    0.0  0.000      0      0  0.000  0.000  0.000  0.144   3.99   0.00   0.00      0      0    268.0   0.00   0.00   0.28   0.16   0.28   0.34   0.00   0.00   0.00   0.00   0.00   0.00   0.00      0      0      0       0       2
 2001 253    33    30    6.0      1   0.13     51     14      0     76     65      0    0.0  0.000      0      0  0.000  0.000  0.000  0.059   3.93   0.00   0.00      0      0    263.1   0.00   0.00   0.28   0.16   0.34   0.48   0.00   0.00   0.00   0.00   0.00   0.00   0.00      0      0      0       0       3
 2001 254    34    31    6.0      1   0.14     56     14      0     92     70      0    0.0  0.000      0      0  0.000  0.000  0.000  0.000   3.91   0.00   0.00      0      0    258.7   0.00   0.00   0.29   0.16   0.40   0.64   0.00   0.00   0.00   0.00   0.00   0.00   0.00      0      0      0       0       3
 2001 255    35    32    6.0      1   0.15     61     14      0    107     75      0    0.0  0.000      0      0  0.000  0.000  0.000  0.000   3.88   0.00   0.00      0      0    242.1   0.00   0.00   0.29   0.16   0.46   0.80   0.00   0.00   0.00   0.00   0.00   0.00   0.00      0      0      0       0       3
 2001 256    36    33    6.0      1   0.17     70     14      0    121     84      0    0.0  0.000      0      0  0.000  0.000  0.000  0.000   3.72   0.00   0.00      0      0    237.3   0.00   0.00   0.30   0.17   0.51   0.95   0.00   0.00   0.00   0.00   0.00   0.00   0.00      0      0      0       0       4
 2001 257    37    34    6.0      1   0.17     74     14      0    130     88      0    0.0  0.000      0      0  0.000  0.000  0.000  0.000   3.92   0.00   0.00      0      0    234.9   0.00   0.00   0.30   0.17   0.55   1.05   0.00   0.00   0.00   0.00   0.00   0.00   0.00      0      0      0       0       5
 2001 258    38    35    6.0      1   0.18     77     14      0    141     91      0    0.0  0.000      0      0  0.000  0.000  0.000  0.000   4.01   0.00   0.00      0      0    232.1   0.00   0.00   0.30   0.18   0.59   1.16   0.00   0.00   0.00   0.00   0.00   0.00   0.00      0      0      0       0       5
 2001 259    39    36    6.0      1   0.18     79     14      0    148     93      0    0.0  0.000      0      0  0.000  0.000  0.000  0.000   4.07   0.00   0.00      0      0    229.2   0.00   0.00   0.30   0.18   0.61   1.23   0.00   0.00   0.00   0.00   0.00   0.00   0.00      0      0      0       0       6
 2001 260    40    37    6.0      1   0.17     82     14      0    164     96      0    0.0  0.000      0      0  0.000  0.000  0.000  0.000   3.97   0.00   0.00      0      0    205.8   0.00   0.00   0.31   0.20   0.68   1.39   0.00   0.00   0.00   0.00   0.00   0.00   0.00      0      0      0       0       7
 2001 261    41    38    7.0      1   0.19     94     14      0    187    108      0    0.0  0.000      0      0  0.000  0.000  0.000  0.000   3.68   0.00   0.00      0      0    204.2   0.00   0.00   0.31   0.23   0.77   1.62   0.01   0.00   0.00   0.00   0.00   0.00   0.00      0      0      0       0       7
 2001 262    42    39    7.0      1   0.22    108     14      0    204    122      0    0.0  0.000      0      0  0.000  0.000  0.000  0.000   3.59   0.00   0.00      0      0    201.9   0.00   0.00   0.32   0.25   0.83   1.77   0.02   0.00   0.00   0.00   0.00   0.00   0.00      0      0      0       0       8
 2001 263    43    40    7.0      1   0.26    130     14      0    231    144      0    0.0  0.000      0      0  0.000  0.000  0.000  0.000   3.46   0.00   0.00      0      0    198.5   0.00   0.00   0.32   0.30   0.94   2.02   0.04   0.00   0.00   0.00   0.00   0.00   0.00      0      0      0       0       9
 2001 264    44    41    8.0      1   0.30    154     14      0    240    168      0    0.0  0.000      0      0  0.000  0.000  0.000  0.000   3.45   0.00   0.00      0      0    194.8   0.00   0.00   0.34   0.31   0.97   2.10   0.05   0.00   0.00   0.00   0.00   0.00   0.00      0      0      0       0      11
 2001 265    45    42    8.0      1   0.35    181     14      0    263    195      0    0.0  0.000      0      0  0.000  0.000  0.000  0.000   3.45   0.00   0.00      0      0    191.0   0.00   0.00   0.36   0.35   1.05   2.29   0.09   0.00   0.00   0.00   0.00   0.00   0.00      0      0      0       0      12
 2001 266    46    43    8.0      1   0.39    209     14      0    283    223      0    0.0  0.000      0      0  0.000  0.000  0.000  0.000   3.48   0.00   0.00      0      0    187.4   0.00   0.00   0.37   0.38   1.12   2.45   0.14   0.00   0.00   0.00   0.00   0.00   0.00      0      0      0       0      13
 2001 267    47    44    9.0      1   0.45    247     14      0    297    261      0    0.0  0.000      0      0  0.000  0.000  0.000  0.000   3.37   0.00   0.00      0      0    183.0   0.00   0.00   0.39   0.41   1.17   2.55   0.18   0.00   0.00   0.00   0.00   0.00   0.00      0      0      0       0      15
 2001 268    48    45    9.0      1   0.49    269     14      0    306    283      0    0.0  0.000      0      0  0.000  0.000  0.000  0.000   3.63   0.00   0.00      0      0    180.8   0.00   0.00   0.40   0.42   1.20   2.62   0.20   0.00   0.00   0.00   0.00   0.00   0.00      0      0      0       0      16
 2001 269    49    46    9.0      1   0.51    288     14      0    326    302      0    0.0  0.000      0      0  0.000  0.000  0.000  0.000   3.67   0.00   0.00      0      0    179.0   0.00   0.00   0.41   0.44   1.28   2.76   0.27   0.00   0.00   0.00   0.00   0.00   0.00      0      0      0       0      18
 2001 270    50    47    9.0      1   0.54    302     14      0    335    316      0    0.0  0.000      0      0  0.000  0.000  0.000  0.000   3.72   0.00   0.00      0      0    177.6   0.00   0.00   0.41   0.45   1.31   2.82   0.30   0.00   0.00   0.00   0.00   0.00   0.00      0      0      0       0      19
 2001 271    51    48    9.0      2   0.59    313     14      0    353    327      0    0.0  0.000      0      0  0.000  0.000  0.000  0.000   3.76   0.00   0.00      0      0    189.5   0.00   0.00   0.43   0.46   1.37   2.94   0.38   0.00   0.00   0.00   0.00   0.00   0.00      0      0      0       0      21
 2001 272    52    49    9.0      2   0.65    352     14      0    381    366      0    0.0  0.000      0      0  0.000  0.000  0.002  0.099   3.48   0.00   0.00      0      0    186.0   0.00   0.00   0.44   0.43   1.35   2.95   0.47   0.00   0.00   0.00   0.00   0.00   0.00      0      0      0       0      23
 2001 273    53    50   10.0      2   0.71    388     14      0    390    402      0    0.0  0.000      0      0  0.000  0.000  0.000  0.123   3.47   0.00   0.00      0      0    183.0   0.00   0.00   0.45   0.41   1.28   2.84   0.49   0.00   0.00   0.00   0.00   0.00   0.00      0      0      0       0      25
 2001 274    54    51   10.0      2   0.72    392     14      0    417    406      0    0.0  0.000      0      0  0.000  0.000  0.000  0.908   3.49   0.00   0.00      0      0    182.8   0.00   0.00   0.47   0.39   1.21   2.84   0.60   0.02   0.00   0.00   0.00   0.00   0.00      0      0      0       0      26
 2001 275    55    52   10.0      3   0.73    407     14      0    446    421      0    0.0  0.000      0      0  0.000  0.000  0.026  0.598   3.67   0.00   0.00      0      0    179.6   0.00   0.00   0.47   0.37   1.14   2.84   0.70   0.06   0.00   0.00   0.00   0.00   0.00      0      0      0       0      29
 2001 276    56    53   10.0      3   0.76    429     14      0    471    443      0    0.0  0.000      0      0  0.000  0.000  0.022  0.495   3.57   0.00   0.00      0      0    177.6   0.00   0.00   0.49   0.36   1.08   2.80   0.78   0.11   0.00   0.00   0.00   0.00   0.00      0      0      0       0      31
 2001 277    57    54   11.0      3   0.81    462     14      0    517    477      0    0.0  0.000      0      0  0.000  0.000  0.022  0.366   3.53   0.00   0.00      0      0    174.9   0.00   0.00   0.50   0.36   1.04   2.87   0.95   0.23   0.00   0.00   0.00   0.00   0.00      0      0      0       0      33
 2001 278    58    55   11.0      3   0.86    502     15      0    592    517      0    0.0  0.000      0      0  0.000  0.000  0.022  0.147   3.51   0.00   0.00      0      0    172.1   0.00   0.00   0.51   0.39   1.04   3.06   1.26   0.52   0.00   0.00   0.00   0.00   0.00      0      0      0       0      36
 2001 279    59    56   11.0      3   0.93    552     16      0    656    568      0    0.0  0.000      0      0  0.000  0.000  0.022  0.018   3.48   0.00   0.00      0      0    169.0   0.00   0.00   0.52   0.43   1.07   3.13   1.55   0.86   0.00   0.00   0.00   0.00   0.00      0      0      0       0      39
 2001 280    60    57   11.0      3   0.99    596     18      0    670    614      0    0.0  0.000      0      0  0.000  0.000  0.022  0.211   3.46   0.00   0.00      0      0    166.4   0.00   0.00   0.53   0.41   1.01   2.94   1.52   0.92   0.00   0.00   0.00   0.00   0.00      0      0      0       0      42
 2001 281    61    58   12.0      3   1.07    656     20      0    706    676      0    0.0  0.000      0      0  0.000  0.000  0.022  0.120   3.37   0.00   0.00      0      0    163.3   0.00   0.00   0.54   0.44   1.01   2.86   1.60   1.16   0.00   0.00   0.00   0.00   0.00      0      0      0       0      45
 2001 282    62    59   12.0      3   1.13    703     23      0    753    726      0    0.0  0.000      0      0  0.000  0.000  0.022  0.193   3.31   0.00   0.00      0      0    161.1   0.00   0.00   0.55   0.48   1.03   2.82   1.69   1.50   0.00   0.00   0.00   0.00   0.00      0      0      0       0      49
 2001 283    63    60   12.0      3   1.22    770     28      0    863    798      0    0.0  0.000      0      0  0.000  0.000  0.022  0.038   3.13   0.00   0.00      0      0    158.2   0.00   0.00   0.56   0.65   1.19   2.95   1.85   2.40   0.00   0.00   0.00   0.00   0.00      0      0      0       0      53
 2001 284    64    61   12.0      3   1.31    841     35      0    989    875      0    0.0  0.000      0      0  0.000  0.000  0.022  0.000   2.94   0.00   0.00      0      0    155.5   0.00   0.00   0.57   0.90   1.44   3.19   1.95   3.47   0.00   0.00   0.00   0.00   0.00      0      0      0       0      57
 2001 285    65    62   12.0      3   1.39    907     42      0   1041    949      0    0.0  0.000      0      0  0.000  0.000  0.025  0.000   2.80   0.00   0.00      0      0    153.1   0.00   0.00   0.58   1.03   1.57   3.31   1.99   3.87   0.00   0.00   0.00   0.00   0.00      0      0      0       0      62
 2001 286    66    63   13.0      3   1.47    977     51      0   1146   1028      0    0.0  0.000      0      0  0.000  0.000  0.032  0.000   2.64   0.00   0.00      0      0    150.6   0.00   0.00   0.60   1.34   1.87   3.61   2.12   4.00   0.00   0.00   0.00   0.00   0.00      0      0      0       0      67
 2001 287    67    64   13.0      3   1.57   1060     65      0   1240   1125      0    0.0  0.000      0      0  0.000  0.000  0.039  0.000   2.46   0.00   0.00      0      0    147.9   0.00   0.00   0.61   1.68   2.21   3.94   2.26   4.00   0.00   0.00   0.00   0.00   0.00      0      0      0       0      73
 2001 288    68    65   13.0      3   1.66   1139     80      0   1242   1219      0    0.0  0.000      0      0  0.000  0.000  0.048  0.000   2.32   0.00   0.00      0      0    145.3   0.00   0.00   0.62   1.67   2.20   3.90   2.23   3.95   0.03   0.00   0.00   0.00   0.00      0      0      0       0      79
 2001 289    69    66   14.0      3   1.75   1225    100      0   1258   1325      0    0.0  0.000      0      0  0.000  0.000  0.059  0.000   2.22   0.00   0.00      0      0    142.6   0.00   0.00   0.63   1.69   2.21   3.88   2.22   3.91   0.12   0.00   0.00   0.00   0.00      0      0      0       0      85
 2001 290    70    67   14.0      3   1.82   1303    121      0   1326   1423      0    0.0  0.000      0      0  0.000  0.000  0.066  0.258   2.24   0.00   0.00      0      0    140.0   0.00   0.00   0.65   1.76   2.26   3.90   2.21   3.86   0.43   0.00   0.00   0.00   0.00      0      0      0       0      92
 2001 291    71    68   14.0      3   1.93   1404    153      0   1373   1557      0    0.0  0.000      0      0  0.000  0.000  0.063  0.150   2.29   0.00   0.00      0      0    137.4   0.00   0.00   0.66   1.80   2.30   3.90   2.20   3.82   0.68   0.00   0.00   0.00   0.00      0      0      0       0      98
 2001 292    72    69   15.0      3   2.04   1509    193      0   1463   1702      0    0.0  0.000      0      0  0.000  0.000  0.053  0.057   2.28   0.00   0.00      0      0    135.0   0.00   0.00   0.68   1.89   2.38   3.97   2.23   3.82   1.13   0.00   0.00   0.00   0.00      0      0      0       0     105
 2001 293    73    70   15.0      3   2.15   1616    239      0   1543   1856      0    0.0  0.000      0      0  0.000  0.000  0.051  0.085   2.24   0.00   0.00      0      0    132.8   0.00   0.00   0.69   1.98   2.46   4.00   2.25   3.82   1.53   0.00   0.00   0.00   0.00      0      0      0       0     112
 2001 294    74    71   15.0      3   2.20   1672    265      0   1687   1938      0    0.0  0.000      0      0  0.000  0.000  0.054  0.036   2.26   0.00   0.00      0      0    131.3   0.00   0.00   0.70   2.17   2.65   4.00   2.32   3.87   2.23   0.00   0.00   0.00   0.00      0      0      0       0     120
 2001 295    75    72   15.0      3   2.23   1718    288      0   1874   2007      0    0.0  0.000      0      0  0.000  0.000  0.060  0.000   2.27   0.00   0.00      0      0    129.8   0.00   0.00   0.71   2.44   2.92   4.00   2.43   3.96   3.09   0.00   0.00   0.00   0.00      0      0      0       0     128
 2001 296    76    73   15.0      3   2.28   1776    319      0   2043   2095      0    0.0  0.000      0      0  0.000  0.000  0.059  0.000   2.24   0.00   0.00      0      0    128.3   0.00   0.00   0.72   2.71   3.19   4.00   2.54   4.00   3.84   0.00   0.00   0.00   0.00      0      0      0       0     138
 2001 297    77    74   16.0      3   2.36   1864    370      0   2182   2234      0    0.0  0.000      0      0  0.000  0.000  0.058  0.000   2.16   0.00   0.00      0      0    126.6   0.00   0.00   0.73   2.95   3.43   4.00   2.64   4.00   4.00   0.00   0.00   0.00   0.00      0      0      0       0     148
 2001 298    78    75   16.0      3   2.48   1990    455      0   2291   2445      0    0.0  0.000      0      0  0.000  0.000  0.058  0.000   2.02   0.00   0.00      0      0    124.6   0.00   0.00   0.74   3.16   3.63   4.00   2.72   4.00   4.00   0.00   0.00   0.00   0.00      0      0      0       0     159
 2001 299    79    76   16.0      3   2.55   2069    514      0   2288   2584      0    0.0  0.000      0      0  0.000  0.000  0.064  0.000   1.96   0.00   0.00      0      0    123.0   0.00   0.00   0.76   3.12   3.59   3.94   2.68   3.93   3.96   0.00   0.00   0.00   0.00      0      0      0       0     170
 2001 300    80    77   17.0      3   2.59   2137    570      0   2283   2707      0    0.0  0.000      0      0  0.000  0.000  0.078  0.000   1.88   0.00   0.00      0      0    121.3   0.00   0.00   0.77   2.94   3.37   3.71   2.52   3.69   3.72   0.00   0.00   0.00   0.00      0      0      0       0     182
 2001 301    81    78   17.0      3   2.62   2189    617      0   2290   2807      0    0.0  0.000      0      0  0.000  0.000  0.087  0.587   1.83   0.00   0.00      0      0    119.7   0.00   0.00   0.79   2.80   3.21   3.52   2.38   3.47   3.53   0.00   0.00   0.00   0.00      0      0      0       0     193
 2001 302    82    79   17.0      3   2.65   2242    670      0   2296   2912      0    0.0  0.000      0      0  0.000  0.000  0.094  0.587   1.78   0.00   0.00      0      0    118.0   0.00   0.00   0.80   2.67   3.06   3.35   2.25   3.27   3.34   0.00   0.00   0.00   0.00      0      0      0       0     205
 2001 303    83    80   18.0      3   2.69   2313    745      0   2438   3058      0    0.0  0.000      0      0  0.000  0.000  0.099  0.262   1.72   0.00   0.00      0      0    116.2   0.00   0.00   0.81   3.13   3.50   3.79   2.41   3.38   3.44   0.00   0.00   0.00   0.00      0      0      0       0     216
 2001 304    84    81   18.0      3   2.72   2381    821      0   2596   3202      0    0.0  0.000      0      0  0.000  0.000  0.103  0.065   1.67   0.00   0.00      0      0    114.4   0.00   0.00   0.82   3.77   4.00   4.00   2.67   3.60   3.56   0.00   0.00   0.00   0.00      0      0      0       0     228
 2001 305    85    82   18.0      3   2.76   2448    901      0   2751   3349      0    0.0  0.000      0      0  0.000  0.000  0.110  0.000   1.62   0.00   0.00      0      0    112.6   0.00   0.00   0.83   4.00   4.00   4.00   2.94   3.84   3.70   0.00   0.00   0.00   0.00      0      0      0       0     241
 2001 306    86    83   18.0      3   2.88   2608   1000      0   2812   3608      0    0.0  0.000      0      0  0.000  0.000  0.119  0.000   1.52   0.00   0.00      0      0    110.4   0.00   0.00   0.84   4.00   4.00   4.00   3.05   3.93   3.76   0.00   0.00   0.00   0.00      0      0      0       0     255
 2001 307    87    84   18.0      3   2.93   2705   1096      0   2942   3801      0    0.0  0.000      0      0  0.000  0.000  0.127  0.000   1.45   0.00   0.00      0      0    108.4   0.00   0.00   0.85   4.00   4.00   4.00   3.28   4.00   3.89   0.00   0.00   0.00   0.00      0      0      0       0     269
[...]
 2010 321   101    98   19.0      3   2.96   3515   2070      0   4284   5585      0    0.0  0.000      0      0  0.000  0.000  0.100  0.000   1.58   0.00   0.00      0      0     84.4   0.00   0.00   0.89   4.00   4.00   4.00   4.00   4.00   4.00   0.00   0.00   0.00   0.00      0      0      0       0     496
 2010 322   102    99   20.0      3   2.97   3564   2185      0   4413   5749      0    0.0  0.000      0      0  0.000  0.000  0.106  0.000   1.54   0.00   0.00      0      0     83.4   0.00   0.00   0.90   4.00   4.00   4.00   4.00   4.00   4.00   0.00   0.00   0.00   0.00      0      0      0       0     517
 2010 323   103   100   20.0      3   2.98   3611   2298      0   4410   5910      0    0.0  0.000      0      0  0.000  0.000  0.112  0.000   1.50   0.00   0.00      0      0     82.4   0.00   0.00   0.91   4.00   4.00   4.00   4.00   4.00   4.00   0.00   0.00   0.00   0.00      0      0      0       0     539
 2010 324   104   101   20.0      3   2.99   3674   2459      0   4450   6133      0    0.0  0.000      0      0  0.000  0.000  0.115  0.000   1.46   0.00   0.00      0      0     81.5   0.00   0.00   0.92   4.00   4.00   4.00   4.00   4.00   4.00   0.21   0.00   0.00   0.00      0      0      0       0     561
 2010 325   105   102   21.0      3   3.02   3743   2649      0   4500   6392      0    0.0  0.000      0      0  0.000  0.000  0.116  0.000   1.42   0.00   0.00      0      0     80.6   0.00   0.00   0.94   4.00   4.00   4.00   4.00   4.00   4.00   0.55   0.00   0.00   0.00      0      0      0       0     583
 2010 326   106   103   21.0      3   3.02   3793   2793      0   4574   6587      0    0.0  0.000      0      0  0.000  0.000  0.118  0.000   1.40   0.00   0.00      0      0     79.6   0.00   0.00   0.95   4.00   4.00   4.00   4.00   4.00   4.00   1.05   0.00   0.00   0.00      0      0      0       0     606
 2010 327   107   104   21.0      3   3.02   3841   2937      0   4595   6778      0    0.0  0.000      0      0  0.000  0.000  0.123  0.000   1.38   0.00   0.00      0      0     78.6   0.00   0.00   0.96   4.00   4.00   4.00   4.00   4.00   4.00   1.28   0.00   0.00   0.00      0      0      0       0     629
 2010 328   108   105   21.0      3   3.02   3894   3096      0   4592   6990      0    0.0  0.000      0      0  0.000  0.000  0.124  0.000   1.36   0.00   0.00      0      0     77.6   0.00   0.00   0.97   4.00   4.00   4.00   3.99   3.99   3.99   1.39   0.00   0.00   0.00      0      0      0       0     652
 2010 329   109   106   21.0      3   3.01   3937   3222      0   4728   7159      0    0.0  0.000      0      0  0.000  0.000  0.126  0.000   1.34   0.00   0.00      0      0     76.6   0.00   0.00   0.99   4.00   4.00   4.00   4.00   4.00   4.00   2.28   0.00   0.00   0.00      0      0      0       0     675
 2010 330   110   107   21.0      3   3.02   3992   3386      0   4848   7378      0    0.0  0.000      0      0  0.000  0.000  0.129  0.000   1.32   0.00   0.00      0      0     75.6   0.00   0.00   1.00   4.00   4.00   4.00   4.00   4.00   4.00   3.09   0.00   0.00   0.00      0      0      0       0     698
 2010 331   111   108   21.0      3   3.02   4052   3563      0   4911   7615      0    0.0  0.000      0      0  0.000  0.000  0.129  0.000   1.29   0.00   0.00      0      0     74.6   0.00   0.00   1.01   4.00   4.00   4.00   4.00   4.00   4.00   3.56   0.00   0.00   0.00      0      0      0       0     723
 2010 332   112   109   21.0      3   3.00   4085   3662      0   4951   7747      0    0.0  0.000      0      0  0.000  0.000  0.134  0.010   1.28   0.00   0.00      0      0     73.6   0.00   0.00   1.02   4.00   4.00   4.00   4.00   4.00   4.00   3.89   0.00   0.00   0.00      0      0      0       0     747
 2010 333   113   110   21.0      3   2.98   4113   3746      0   5021   7859      0    0.0  0.000      0      0  0.000  0.000  0.139  0.000   1.27   0.00   0.00      0      0     72.4   0.00   0.00   1.03   4.00   4.00   4.00   4.00   4.00   4.00   4.00   0.00   0.00   0.00      0      0      0       0     772
 2010 334   114   111   21.0      3   2.96   4150   3855      0   5167   8005      0    0.0  0.000      0      0  0.000  0.000  0.139  0.000   1.26   0.00   0.00      0      0     71.4   0.00   0.00   1.04   4.00   4.00   4.00   4.00   4.00   4.00   4.00   0.00   0.00   0.00      0      0      0       0     797
 2010 335   115   112   21.0      4   2.91   4107   3269      0   5293   8163      0    0.0  0.000    787      0  0.000  0.000  0.137  0.000   1.38   0.00   0.10      0    787     70.9   0.00   0.00   1.05   4.00   4.00   4.00   4.00   4.00   4.00   4.00   0.00   0.00   0.00      0      0      0       0     823
 2010 336   116   113   21.0      4   2.86   4061   3338      0   5370   8358      0    0.0  0.000    960      0  0.000  0.000  0.134  0.000   1.39   0.00   0.11      0    960     70.5   0.00   0.00   1.07   4.00   4.00   4.00   4.00   4.00   4.00   4.00   0.00   0.00   0.00      0      0      0       0     849
 2010 337   117   114   21.0      4   2.83   4011   3409      0   5421   8558      0    0.0  0.000   1138      0  0.000  0.000  0.100  0.000   1.39   0.00   0.13      0   1138     70.4   0.00   0.00   1.08   4.00   4.00   4.00   4.00   4.00   4.00   4.00   0.00   0.00   0.00      0      0      0       0     876
 2010 338   118   115   21.0      4   2.79   3959   3470      0   5520   8720      0    0.0  0.000   1291      0  0.000  0.000  0.095  0.000   1.40   0.00   0.15      0   1291     70.5   0.00   0.00   1.09   4.00   4.00   4.00   4.00   4.00   4.00   4.00   0.08   0.00   0.00      0      0      0       0     903
 2010 339   119   116   21.0      4   2.76   3903   3539      0   5636   8905      0    0.0  0.000   1463      0  0.000  0.000  0.090  0.000   1.41   0.00   0.16      0   1463     70.7   0.00   0.00   1.10   4.00   4.00   4.00   4.00   4.00   4.00   4.00   0.24   0.00   0.00      0      0      0       0     931
 2010 340   120   117   21.0      4   2.73   3846   3600      0   5758   9061      0    0.0  0.000   1615      0  0.000  0.000  0.084  0.000   1.41   0.00   0.18      0   1615     71.0   0.00   0.00   1.11   4.00   4.00   4.00   4.00   4.00   4.00   4.00   0.47   0.00   0.00      0      0      0       0     959
 2010 341   121   118   21.0      4   2.70   3785   3661      0   5881   9214      0    0.0  0.000   1768      0  0.000  0.000  0.080  0.000   1.43   0.00   0.19      0   1768     71.4   0.00   0.00   1.12   4.00   4.00   4.00   4.00   4.00   4.00   4.00   0.75   0.00   0.00      0      0      0       0     988
 2010 342   122   119   21.0      4   2.68   3723   3721      0   5912   9362      0    0.0  0.000   1918      0  0.000  0.000  0.074  0.000   1.44   0.00   0.20      0   1918     72.0   0.00   0.00   1.13   4.00   4.00   4.00   4.00   4.00   4.00   4.00   0.88   0.00   0.00      0      0      0       0    1017
 2010 343   123   120   21.0      4   2.66   3656   3813      0   5990   9616      0    0.0  0.000   2147      0  0.000  0.000  0.068  0.000   1.44   0.00   0.22      0   2147     72.7   0.00   0.00   1.14   4.00   4.00   4.00   4.00   4.00   4.00   4.00   1.12   0.00   0.00      0      0      0       0    1047
 2010 344   124   121   21.0      4   2.64   3587   3885      0   6036   9801      0    0.0  0.000   2328      0  0.000  0.000  0.063  0.000   1.45   0.00   0.24      0   2328     73.5   0.00   0.00   1.15   4.00   4.00   4.00   4.00   4.00   4.00   4.00   1.30   0.00   0.00      0      0      0       0    1077
 2010 345   125   122   21.0      4   2.62   3515   3961      0   6017   9992      0    0.0  0.000   2517      0  0.000  0.000  0.058  0.000   1.46   0.00   0.25      0   2517     74.4   0.00   0.00   1.16   4.00   4.00   4.00   3.99   3.99   3.99   3.99   1.32   0.00   0.00      0      0      0       0    1107
 2010 346   126   123   21.0      4   2.60   3441   3997      0   6004  10048      0    0.0  0.000   2609      0  0.000  0.000  0.056  0.000   1.47   0.00   0.26      0   2609     75.5   0.00   0.00   1.17   4.00   4.00   4.00   3.99   3.99   3.98   3.98   1.36   0.00   0.00      0      0      0       0    1137
 2010 347   127   124   21.0      4   2.44   3366   4039      0   6175  10119      0    0.0  0.000   2714      0  0.000  0.000  0.053  0.000   1.48   0.00   0.27      0   2714     72.4   0.00   0.00   1.17   4.00   4.00   4.00   4.00   4.00   4.00   4.00   1.83   0.00   0.00      0      0      0       0    1167
 2010 348   128   125   21.0      5   2.41   3366   4039    182   6226  10300   3523    5.2  0.018   2896      7  0.000  0.000  0.092  0.000   1.46   6.28   0.28      0   2896     71.5   0.00   0.00   1.18   4.00   4.00   4.00   4.00   4.00   4.00   4.00   2.01   0.00   0.00      0      0      0       0    1198
 2010 349   129   126   21.0      5   2.38   3366   4039    446   6251  10565   3523   12.7  0.042   3160      7  0.000  0.000  0.096  0.000   1.41  14.11   0.30      0   3160     70.7   0.00   0.00   1.19   4.00   4.00   4.00   4.00   4.00   4.00   4.00   2.13   0.00   0.00      0      0      0       0    1229
 2010 350   130   127   21.0      5   2.35   3366   4039    710   6279  10829   3523   20.2  0.066   3424      7  0.000  0.000  0.102  0.000   1.37  20.74   0.32      0   3424     69.8   0.00   0.00   1.20   4.00   4.00   4.00   4.00   4.00   4.00   4.00   2.25   0.00   0.00      0      0      0       0    1260
 2010 351   131   128   21.0      5   2.32   3366   4039    974   6305  11093   3523   27.7  0.088   3688      7  0.000  0.000  0.107  0.000   1.33  26.42   0.33      0   3688     68.8   0.00   0.00   1.21   4.00   4.00   4.00   4.00   4.00   4.00   4.00   2.36   0.00   0.00      0      0      0       0    1292
 2010 352   132   129   21.0      5   2.28   3366   4039   1239   6292  11357   3523   35.2  0.109   3952      7  0.000  0.000  0.113  0.000   1.29  31.34   0.35      0   3952     67.9   0.00   0.00   1.22   4.00   4.00   4.00   4.00   4.00   4.00   3.99   2.39   0.00   0.00      0      0      0       0    1323
 2010 353   133   130   21.0      5   2.25   3366   3958   1464   6260  11502   3523   41.6  0.127   4178      7  0.000  0.000  0.121  0.000   1.27  35.04   0.36      0   4178     66.9   0.00   0.00   1.22   4.00   4.00   4.00   4.00   4.00   4.00   3.99   2.39   0.00   0.00      0      0      0       0    1355
 2010 354   134   131   21.0      5   2.21   3366   3966   1728   6232  11773   3523   49.1  0.147   4442      7  0.000  0.000  0.125  0.000   1.23  38.91   0.38      0   4442     65.8   0.00   0.00   1.23   3.99   3.99   3.99   3.98   3.98   3.98   3.97   2.38   0.00   0.00      0      0      0       0    1386
 2010 355   135   132   21.0      5   2.18   3366   4039   1993   6246  12111   3523   56.6  0.165   4706      7  0.000  0.000  0.127  0.000   1.18  42.34   0.39      0   4706     64.8   0.00   0.00   1.25   4.00   4.00   4.00   4.00   4.00   4.00   3.98   2.43   0.00   0.00      0      0      0       0    1417
 2010 356   136   133   21.0      5   2.14   3366   4039   2257   6268  12375   3523   64.1  0.182   4971      7  0.000  0.000  0.134  0.000   1.14  45.40   0.40      0   4971     63.7   0.00   0.00   1.25   4.00   4.00   4.00   4.00   4.00   4.00   4.00   2.48   0.00   0.00      0      0      0       0    1448
 2010 357   137   134   21.0      5   2.10   3366   4039   2521   6288  12640   3523   71.6  0.199   5235      7  0.000  0.000  0.145  0.000   1.10  48.16   0.41      0   5235     62.5   0.00   0.00   1.25   4.00   4.00   4.00   4.00   4.00   4.00   4.00   2.51   0.00   0.00      0      0      0       0    1480
 2010 358   138   135   21.0      5   2.06   3366   3912   2785   6256  12776   3523   79.1  0.218   5499      7  0.000  0.000  0.153  0.000   1.08  50.65   0.43      0   5499     61.3   0.00   0.00   1.25   4.00   4.00   4.00   4.00   4.00   4.00   4.00   2.51   0.00   0.00      0      0      0       0    1511
 2010 359   139   136   21.0      5   2.02   3366   3995   3049   6267  13124   3523   86.6  0.232   5763      7  0.000  0.000  0.160  0.000   1.03  52.91   0.44      0   5763     60.1   0.00   0.00   1.25   4.00   4.00   4.00   4.00   4.00   4.00   4.00   2.52   0.00   0.00      0      0      0       0    1542
 2010 360   140   137   21.0      5   1.98   3366   4039   3314   6283  13432   3523   94.1  0.247   6027      7  0.000  0.000  0.162  0.000   0.99  54.97   0.45      0   6027     58.9   0.00   0.00   1.25   4.00   4.00   4.00   4.00   4.00   4.00   4.00   2.52   0.00   0.00      0      0      0       0    1574
 2010 361   141   138   21.0      5   1.94   3366   4039   3578   6293  13696   3523  101.6  0.261   6292      7  0.000  0.000  0.174  0.000   0.96  56.87   0.46      0   6292     57.6   0.00   0.00   1.25   4.00   4.00   4.00   4.00   4.00   4.00   4.00   2.53   0.00   0.00      0      0      0       0    1605
 2010 362   142   139   21.0      5   1.89   3366   4039   3838   6304  13956   3523  108.9  0.275   6551      7  0.000  0.000  0.185  0.000   0.93  58.58   0.47      0   6551     56.3   0.00   0.00   1.25   4.00   4.00   4.00   4.00   4.00   4.00   4.00   2.53   0.00   0.00      0      0      0       0    1637
 2010 363   143   140   21.0      5   1.85   3366   4039   4102   6296  14220   3523  116.4  0.288   6816      7  0.000  0.000  0.192  0.000   0.90  60.18   0.48      0   6816     54.9   0.00   0.00   1.25   4.00   4.00   4.00   4.00   4.00   4.00   4.00   2.53   0.00   0.00      0      0      0       0    1668
 2010 364   144   141   21.0      5   1.80   3366   4039   4355   6305  14474   3523  123.6  0.301   7069      7  0.000  0.000  0.204  0.000   0.87  61.61   0.49      0   7069     53.5   0.00   0.00   1.25   4.00   4.00   4.00   4.00   4.00   4.00   4.00   2.53   0.00   0.00      0      0      0       0    1700
 2010 365   145   142   21.0      5   1.75   3366   4039   4620   6304  14738   3523  131.1  0.313   7333      7  0.000  0.000  0.226  0.000   0.84  62.99   0.50      0   7333     52.1   0.00   0.00   1.25   4.00   4.00   4.00   4.00   4.00   4.00   4.00   2.53   0.00   0.00      0      0      0       0    1731
 2011 001   146   143   21.0      5   1.71   3366   4033   4884   6273  14997   3523  138.6  0.326   7598      7  0.000  0.000  0.252  0.000   0.81  64.28   0.51      0   7598     50.7   0.00   0.00   1.25   4.00   4.00   4.00   4.00   4.00   4.00   4.00   2.53   0.00   0.00      0      0      0       0    1763
 2011 002   147   144   21.0      5   1.66   3366   3961   5148   6242  15188   3523  146.1  0.339   7862      7  0.000  0.000  0.278  0.000   0.79  65.48   0.52      0   7862     49.3   0.00   0.00   1.25   4.00   4.00   4.00   4.00   4.00   4.00   4.00   2.53   0.00   0.00      0      0      0       0    1794
 2011 003   148   145   21.0      5   1.61   3366   3823   5386   6210  15289   3523  152.9  0.352   8100      7  0.000  0.000  0.307  0.000   0.78  66.50   0.53      0   8100     47.8   0.00   0.00   1.25   4.00   4.00   4.00   4.00   4.00   4.00   4.00   2.53   0.00   0.00      0      0      0       0    1825
 2011 004   149   146   21.0      5   1.56   3366   3730   5651   6179  15460   3523  160.4  0.365   8364      7  0.000  0.000  0.317  0.000   0.76  67.56   0.54      0   8364     46.4   0.00   0.00   1.25   4.00   4.00   4.00   4.00   4.00   4.00   4.00   2.53   0.00   0.00      0      0      0       0    1856
 2011 005   150   147   21.0      5   1.51   3366   3624   5915   6148  15618   3523  167.9  0.379   8629      7  0.000  0.000  0.323  0.000   0.75  68.55   0.55      0   8629     45.0   0.00   0.00   1.25   4.00   4.00   4.00   4.00   4.00   4.00   4.00   2.53   0.00   0.00      0      0      0       0    1887
 2011 006   151   148   21.0      5   1.47   3366   3646   6179   6129  15904   3523  175.4  0.389   8893      7  0.000  0.000  0.337  0.000   0.72  69.48   0.56      0   8893     43.6   0.00   0.00   1.25   4.00   4.00   4.00   4.00   3.99   3.99   3.99   2.52   0.00   0.00      0      0      0       0    1918
 2011 007   152   149   21.0      5   1.42   3366   3660   6443   6105  16183   3523  182.9  0.398   9157      7  0.000  0.000  0.349  0.000   0.69  70.36   0.57      0   9157     42.3   0.00   0.00   1.25   4.00   4.00   4.00   3.99   3.98   3.98   3.97   2.51   0.00   0.00      0      0      0       0    1949
 2011 008   153   150   21.0      5   1.38   3366   3619   6707   6075  16405   3523  190.4  0.409   9421      7  0.000  0.000  0.385  0.000   0.67  71.19   0.57      0   9421     40.9   0.00   0.00   1.25   4.00   4.00   4.00   3.99   3.98   3.98   3.97   2.51   0.00   0.00      0      0      0       0    1979
 2011 009   154   151   21.0      5   1.33   3366   3569   6972   6044  16620   3523  197.9  0.419   9685      7  0.000  0.000  0.419  0.000   0.65  71.98   0.58      0   9685     39.5   0.00   0.00   1.25   4.00   4.00   4.00   3.99   3.98   3.98   3.97   2.51   0.00   0.00      0      0      0       0    2010
 2011 010   155   152   21.0      5   1.28   3366   3406   7236   6014  16721   3523  205.4  0.433   9950      7  0.000  0.000  0.444  0.000   0.64  72.72   0.60      0   9950     38.1   0.00   0.00   1.25   4.00   4.00   4.00   3.99   3.98   3.98   3.97   2.51   0.00   0.00      0      0      0       0    2040
 2011 011   156   153   21.0      5   1.24   3366   3242   7500   5984  16821   3523  212.9  0.446  10214      7  0.000  0.000  0.468  0.000   0.63  73.43   0.61      0  10214     36.7   0.00   0.00   1.25   4.00   4.00   4.00   3.99   3.98   3.98   3.97   2.51   0.00   0.00      0      0      0       0    2070
 2011 012   157   154   21.0      5   1.19   3366   3114   7764   5954  16958   3523  220.4  0.458  10478      7  0.000  0.000  0.474  0.000   0.62  74.10   0.62      0  10478     35.4   0.00   0.00   1.25   4.00   4.00   4.00   3.99   3.98   3.98   3.97   2.51   0.00   0.00      0      0      0       0    2100
 2011 013   158   155   21.0      5   1.15   3366   3041   8028   5925  17149   3523  227.9  0.468  10742      7  0.000  0.000  0.475  0.000   0.61  74.74   0.63      0  10742     34.1   0.00   0.00   1.25   4.00   4.00   4.00   3.99   3.98   3.98   3.97   2.51   0.00   0.00      0      0      0       0    2129
 2011 014   159   156   21.0      5   1.10   3366   2974   8293   5895  17346   3523  235.4  0.478  11006      7  0.000  0.000  0.493  0.000   0.59  75.34   0.63      0  11006     32.8   0.00   0.00   1.25   4.00   4.00   4.00   3.99   3.98   3.98   3.97   2.51   0.00   0.00      0      0      0       0    2159
 2011 015   160   157   21.0      5   1.06   3366   2922   8557   5865  17559   3523  242.9  0.487  11271      7  0.000  0.000  0.511  0.000   0.58  75.92   0.64      0  11271     31.6   0.00   0.00   1.25   4.00   4.00   4.00   3.99   3.98   3.98   3.97   2.51   0.00   0.00      0      0      0       0    2189
 2011 016   161   158   21.0      5   1.06   3366   2922   8557   5865  17559   3523  242.9  0.487  11271      7  0.000  0.000  0.511  0.000   0.58  75.92   0.64      0  11271     31.6   0.00   0.00   1.25   4.00   4.00   4.00   3.99   3.98   3.98   3.97   2.51   0.00   0.00      0      0      0       0    2189
 2011 017   162   159   21.0      5   1.06   3366   2922   8557   5865  17559   3523  242.9  0.487  11271      7  0.000  0.000  0.511  0.000   0.58  75.92   0.64      0  11271     31.6   0.00   0.00   1.25   4.00   4.00   4.00   3.99   3.98   3.98   3.97   2.51   0.00   0.00      0      0      0       0    2189
 2011 018   163   160   21.0      5   1.06   3366   2922   8557   5865  17559   3523  242.9  0.487  11271      7  0.000  0.000  0.511  0.000   0.58  75.92   0.64      0  11271     31.6   0.00   0.00   1.25   4.00   4.00   4.00   3.99   3.98   3.98   3.97   2.51   0.00   0.00      0      0      0       0    2189
