*SOIL-PLANT-ATMOSPHERE MODULE OUTPUT FILE

*DSSAT Cropping System Model Ver. 4.0.2.000               Aug 02, 2016; 15:29:24

*RUN   1        : UYMZ                    
 MODEL          : MZCER040 - Maize           
 EXPERIMENT     : UYMZ0107 MZ    late to create DSS                             
 TREATMENT  1   : UYMZ                    

@YEAR DOY   DAS   SRAA   TMXA   TMNA   EOAA   ETAA   EPAA   ESAA   EFAD   ETAC   EPAC   ESAC   EFAC
 1990 211     0  12.80  12.80  -1.00  2.292  2.292  0.000  2.292  0.000    2.3    0.0    2.3    0.0
 1990 212     1  13.00  14.90  -1.90  2.385  1.395  0.000  1.395  0.000    3.7    0.0    3.7    0.0
 1990 213     2  13.00  17.50   3.80  2.632  1.088  0.000  1.088  0.000    4.8    0.0    4.8    0.0
 1990 214     3  14.40  19.90   3.70  3.014  3.014  0.000  3.014  0.000    7.8    0.0    7.8    0.0
 1990 215     4  14.80  21.50   5.00  3.206  3.118  0.000  3.118  0.000   10.9    0.0   10.9    0.0
 1990 216     5  14.80  21.90   5.70  3.244  3.244  0.000  3.244  0.000   14.2    0.0   14.2    0.0
 1990 217     6  14.50  25.90  10.20  3.479  1.487  0.000  1.487  0.000   15.6    0.0   15.6    0.0
 1990 218     7  15.60  23.40  13.90  3.741  1.128  0.000  1.128  0.000   16.8    0.0   16.8    0.0
 1990 219     8  15.20  25.90  14.40  3.773  0.947  0.000  0.947  0.000   17.7    0.0   17.7    0.0
 1990 220     9  12.90  25.00  12.80  3.127  0.833  0.000  0.833  0.000   18.5    0.0   18.5    0.0
 1990 221    10  14.70  20.50  10.30  3.295  1.600  0.000  1.600  0.000   20.1    0.0   20.1    0.0
 1990 222    11  15.10  22.30   8.90  3.423  0.794  0.005  0.789  0.000   20.9    0.0   20.9    0.0
 1990 223    12  15.40  28.00  11.90  3.841  0.729  0.010  0.719  0.000   21.7    0.0   21.7    0.0
 1990 224    13  15.30  28.40  12.10  3.839  0.684  0.019  0.665  0.000   22.4    0.0   22.3    0.0
 1990 225    14  14.50  28.00  12.80  3.640  0.649  0.027  0.622  0.000   23.0    0.1   22.9    0.0
 1990 226    15   5.20  25.80  14.90  1.292  0.599  0.013  0.586  0.000   23.6    0.1   23.5    0.0
 1990 227    16   7.50  15.80  10.50  1.577  1.577  0.021  1.556  0.000   25.2    0.1   25.1    0.0
 1990 228    17  14.80  18.90   8.50  3.188  3.188  0.045  3.143  0.000   28.4    0.1   28.2    0.0
 1990 229    18  16.80  21.40   7.70  3.714  2.777  0.070  2.707  0.000   31.1    0.2   30.9    0.0
 1990 230    19  16.20  20.80   6.00  3.495  2.453  0.086  2.366  0.000   33.6    0.3   33.3    0.0
 1990 231    20  12.80  20.80  10.40  2.870  1.460  0.086  1.374  0.000   35.1    0.4   34.7    0.0
 1990 232    21  17.30  21.00  10.30  3.882  1.221  0.144  1.078  0.000   36.3    0.5   35.7    0.0
 1990 233    22  14.80  20.90   6.70  3.208  1.062  0.145  0.917  0.000   37.3    0.7   36.7    0.0
 1990 234    23  13.00  18.40   8.30  2.760  0.955  0.143  0.812  0.000   38.3    0.8   37.5    0.0
 1990 235    24  17.00  15.60   4.40  3.337  0.929  0.193  0.736  0.000   39.2    1.0   38.2    0.0
 1990 236    25  11.20  18.10   3.70  2.265  0.813  0.134  0.679  0.000   40.0    1.1   38.9    0.0
 1990 237    26  13.00  24.60   9.60  3.026  0.814  0.181  0.633  0.000   40.8    1.3   39.5    0.0
 1990 238    27  16.40  25.50  11.70  3.922  0.876  0.281  0.595  0.000   41.7    1.6   40.1    0.0
 1990 239    28   6.80  17.60   5.50  1.383  1.383  0.119  1.264  0.000   43.1    1.7   41.4    0.0
 1990 240    29  18.80   9.70   2.00  3.260  3.260  0.296  2.964  0.000   46.4    2.0   44.3    0.0
 1990 241    30  17.80  14.60  -1.20  3.237  3.237  0.249  2.988  0.000   49.6    2.3   47.3    0.0
 1990 242    31  16.80  21.80   2.90  3.564  2.213  0.138  2.075  0.000   51.8    2.4   49.4    0.0
 1990 243    32   5.50  11.80   5.50  1.033  1.033  0.043  0.989  0.000   52.8    2.4   50.4    0.0
 1990 244    33  10.70  10.20   0.80  1.859  1.859  0.080  1.780  0.000   54.7    2.5   52.2    0.0
 1990 245    34  17.70  11.60  -2.30  3.046  2.234  0.096  2.138  0.000   56.9    2.6   54.3    0.0
 1990 246    35  19.80  16.80   2.50  3.910  1.371  0.039  1.332  0.000   58.3    2.7   55.6    0.0
 1990 247    36   5.60  16.40   7.10  1.150  1.072  0.015  1.057  0.000   59.4    2.7   56.7    0.0
 1990 248    37   6.00  18.60  13.40  1.344  0.929  0.025  0.904  0.000   60.3    2.7   57.6    0.0
 1990 249    38   5.70  15.40  13.40  1.221  1.221  0.039  1.181  0.000   61.5    2.7   58.8    0.0
 1990 250    39   5.80  15.90  12.80  1.241  1.004  0.055  0.949  0.000   62.5    2.8   59.7    0.0
 1990 251    40   5.80  14.30  10.30  1.185  1.185  0.059  1.126  0.000   63.7    2.9   60.9    0.0
 1990 252    41  19.70  23.50   7.80  4.457  4.457  0.239  4.218  0.000   68.2    3.1   65.1    0.0
 1990 253    42  15.20  27.50  11.60  3.723  2.597  0.253  2.344  0.000   70.8    3.4   67.4    0.0
 1990 254    43   9.60  23.10  10.70  2.199  2.199  0.225  1.974  0.000   73.0    3.6   69.4    0.0
 1990 255    44  17.10  13.80   5.20  3.261  3.261  0.400  2.861  0.000   76.2    4.0   72.3    0.0
 1990 256    45  18.80  11.80   2.70  3.383  2.666  0.425  2.241  0.000   78.9    4.4   74.5    0.0
 1990 257    46  20.40  14.20   0.50  3.733  3.013  0.427  2.586  0.000   81.9    4.8   77.1    0.0
 1990 258    47  21.40  18.40   3.40  4.318  1.766  0.362  1.404  0.000   83.7    5.2   78.5    0.0
 1990 259    48  17.80  21.60   7.90  3.912  1.434  0.343  1.092  0.000   85.1    5.5   79.6    0.0
 1990 260    49  10.60  17.70  10.60  2.258  1.165  0.239  0.925  0.000   86.3    5.8   80.5    0.0
 1990 261    50   9.30  17.90  11.00  1.989  1.989  0.242  1.748  0.000   88.3    6.0   82.3    0.0
 1990 262    51  13.80  17.70  10.00  2.910  2.910  0.401  2.508  0.000   91.2    6.4   84.8    0.0
 1990 263    52   6.40  17.90  13.30  1.391  1.391  0.214  1.177  0.000   92.6    6.6   85.9    0.0
 1990 264    53   6.40  20.50  15.80  1.462  1.214  0.275  0.939  0.000   93.8    6.9   86.9    0.0
 1990 265    54  20.10  18.60   9.20  4.215  4.020  0.872  3.148  0.000   97.8    7.8   90.0    0.0
 1990 266    55  18.60  13.50   5.40  3.484  2.226  0.782  1.444  0.000  100.0    8.6   91.5    0.0
 1990 267    56  22.30  15.00   3.20  4.176  2.068  0.958  1.110  0.000  102.1    9.5   92.6    0.0
 1990 268    57  23.20  16.30   3.10  4.432  1.914  0.978  0.936  0.000  104.0   10.5   93.5    0.0
 1990 269    58  23.40  20.50   5.10  4.847  1.859  1.034  0.825  0.000  105.9   11.5   94.3    0.0
 1990 270    59  21.30  24.00   8.90  4.767  1.855  1.109  0.746  0.000  107.7   12.6   95.1    0.0
 1990 271    60   6.80  21.70  12.20  1.512  1.088  0.402  0.686  0.000  108.8   13.0   95.8    0.0
 1990 272    61  19.30  22.00  11.30  4.259  1.877  1.239  0.639  0.000  110.7   14.3   96.4    0.0
 1990 273    62  19.30  25.20   8.90  4.327  1.986  1.386  0.600  0.000  112.7   15.7   97.0    0.0
 1990 274    63  21.70  28.10  12.90  5.181  2.394  1.826  0.568  0.000  115.1   17.5   97.6    0.0
 1990 275    64  24.20  24.00  11.90  5.418  2.686  2.146  0.540  0.000  117.8   19.6   98.1    0.0
 1990 276    65  21.80  26.60  13.30  5.072  2.680  2.164  0.516  0.000  120.4   21.8   98.6    0.0
 1990 277    66  17.90  30.10  17.50  4.453  2.558  2.063  0.495  0.000  123.0   23.9   99.1    0.0
 1990 278    67   7.10  19.10  17.30  1.536  1.270  0.794  0.476  0.000  124.3   24.7   99.6    0.0
 1990 279    68   9.40  22.70  17.20  2.115  2.115  1.154  0.961  0.000  126.4   25.8  100.6    0.0
 1990 280    69   7.20  21.60  17.70  1.596  1.596  0.927  0.670  0.000  128.0   26.7  101.2    0.0
 1990 281    70  11.50  20.40  13.70  2.420  2.420  1.466  0.954  0.000  130.4   28.2  102.2    0.0
 1990 282    71  23.40  22.30   9.50  4.852  4.852  3.042  1.810  0.000  135.3   31.2  104.0    0.0
 1990 283    72  21.00  22.30  11.30  4.410  4.410  2.847  1.563  0.000  139.7   34.1  105.6    0.0
 1990 284    73   9.00  22.10  14.50  1.931  1.931  1.285  0.646  0.000  141.6   35.4  106.2    0.0
 1990 285    74  25.50  19.40  11.30  5.124  5.124  3.522  1.602  0.000  146.7   38.9  107.8    0.0
 1990 286    75  26.10  21.60   7.60  5.215  5.215  3.659  1.556  0.000  151.9   42.6  109.4    0.0
 1990 287    76  24.80  22.60  11.50  5.184  5.184  3.701  1.483  0.000  157.1   46.3  110.9    0.0
 1990 288    77  25.50  20.10   8.90  5.031  5.031  3.674  1.357  0.000  162.1   49.9  112.2    0.0
 1990 289    78  26.40  20.50   5.00  5.046  4.525  3.740  0.785  0.000  166.7   53.7  113.0    0.0
 1990 290    79  15.20  21.40   8.90  3.044  3.044  2.273  0.770  0.000  169.7   55.9  113.8    0.0
 1990 291    80  24.50  24.40  14.30  5.325  5.325  4.037  1.288  0.000  175.0   60.0  115.1    0.0
 1990 292    81  17.30  24.00  15.30  3.763  3.763  2.918  0.845  0.000  178.8   62.9  115.9    0.0
 1990 293    82  16.40  23.70  15.70  3.557  3.557  2.817  0.740  0.000  182.4   65.7  116.6    0.0
 1990 294    83  22.20  24.00  14.20  4.764  4.764  3.845  0.919  0.000  187.1   69.6  117.6    0.0
 1990 295    84  27.10  24.80  13.10  5.809  5.809  4.766  1.043  0.000  192.9   74.3  118.6    0.0
 1990 296    85  21.10  25.60  13.10  4.559  4.559  3.796  0.763  0.000  197.5   78.1  119.4    0.0
 1990 297    86  20.80  22.20  13.80  4.327  4.327  3.654  0.673  0.000  201.8   81.8  120.0    0.0
 1990 298    87  14.30  24.70  11.80  3.014  3.014  2.574  0.440  0.000  204.8   84.4  120.5    0.0
 1990 299    88  25.10  27.10  16.30  5.637  5.637  4.866  0.771  0.000  210.5   89.2  121.2    0.0
 1990 300    89  19.60  28.30  17.00  4.480  4.480  3.918  0.561  0.000  214.9   93.1  121.8    0.0
 1990 301    90   8.80  23.80  18.50  1.927  1.879  1.716  0.162  0.000  216.8   94.9  122.0    0.0
 1990 302    91  12.20  27.40  20.40  2.824  2.824  2.527  0.296  0.000  219.7   97.4  122.3    0.0
 1990 303    92  26.40  28.80  17.90  6.088  6.088  5.477  0.611  0.000  225.7  102.9  122.9    0.0
 1990 304    93  26.50  23.20  15.80  5.625  5.625  5.102  0.523  0.000  231.4  108.0  123.4    0.0
 1990 305    94  23.10  24.10  16.70  4.990  4.990  4.547  0.443  0.000  236.4  112.5  123.8    0.0
 1990 306    95  20.10  27.00  14.30  4.408  4.408  4.031  0.377  0.000  240.8  116.5  124.2    0.0
 1990 307    96  11.80  28.10  20.80  2.752  2.752  2.525  0.228  0.000  243.5  119.1  124.5    0.0
 1990 308    97  21.00  22.20  10.80  4.216  4.216  3.873  0.343  0.000  247.7  122.9  124.8    0.0
 1990 309    98  28.80  19.00   6.40  5.325  5.325  4.894  0.431  0.000  253.1  127.8  125.2    0.0
 1990 310    99  17.40  21.20   9.80  3.418  3.418  3.139  0.279  0.000  256.5  131.0  125.5    0.0
 1990 311   100  23.40  23.50  13.50  4.885  4.885  4.486  0.399  0.000  261.4  135.5  125.9    0.0
 1990 312   101   8.40  18.40  11.30  1.611  1.611  1.480  0.131  0.000  263.0  136.9  126.0    0.0
 1990 313   102  16.20  22.30  15.10  3.376  3.376  3.101  0.275  0.000  266.3  140.0  126.3    0.0
 1990 314   103  21.20  24.80  13.70  4.504  4.504  4.139  0.365  0.000  270.8  144.2  126.7    0.0
 1990 315   104  23.60  27.00  15.30  5.212  5.212  4.792  0.420  0.000  276.1  149.0  127.1    0.0
 1990 316   105  12.20  24.60  14.20  2.595  2.595  2.389  0.207  0.000  278.7  151.4  127.3    0.0
 1990 317   106  26.70  34.90  18.50  6.588  6.588  6.065  0.522  0.000  285.2  157.4  127.8    0.0
 1990 318   107  15.90  33.00  20.80  3.907  3.907  3.604  0.303  0.000  289.1  161.0  128.1    0.0
 1990 319   108   8.60  23.20  17.30  1.844  1.844  1.703  0.141  0.000  291.0  162.7  128.3    0.0
 1990 320   109  17.60  22.10  12.20  3.570  3.570  3.288  0.282  0.000  294.6  166.0  128.5    0.0
 1990 321   110  28.70  26.10   9.30  5.976  5.976  5.489  0.487  0.000  300.5  171.5  129.0    0.0
 1990 322   111  27.80  29.70  16.50  6.394  6.394  5.860  0.534  0.000  306.9  177.4  129.6    0.0
 1990 323   112  27.10  33.40  21.80  6.741  6.741  6.166  0.575  0.000  313.7  183.5  130.1    0.0
 1990 324   113  12.20  28.00  21.10  2.850  2.850  2.602  0.248  0.000  316.5  186.1  130.4    0.0
 1990 325   114  30.70  28.70  18.80  7.108  7.108  6.478  0.630  0.000  323.6  192.6  131.0    0.0
 1990 326   115  28.10  28.00  15.30  6.287  6.287  5.720  0.567  0.000  329.9  198.3  131.6    0.0
 1990 327   116  29.80  28.20  14.20  6.627  6.627  6.021  0.607  0.000  336.5  204.4  132.2    0.0
 1990 328   117  25.60  28.70  16.80  5.842  5.842  5.300  0.543  0.000  342.4  209.7  132.7    0.0
 1990 329   118  20.10  29.20  18.20  4.662  4.662  4.224  0.439  0.000  347.1  213.9  133.2    0.0
 1990 330   119  22.90  24.90  15.80  4.963  4.963  4.490  0.473  0.000  352.0  218.4  133.6    0.0
 1990 331   120  30.40  21.20  10.00  5.994  5.994  5.417  0.577  0.000  358.0  223.8  134.2    0.0
 1990 332   121  30.90  24.60   9.00  6.313  6.313  5.695  0.618  0.000  364.3  229.5  134.8    0.0
 1990 333   122  31.00  27.10  12.20  6.707  6.707  6.038  0.669  0.000  371.0  235.5  135.5    0.0
 1990 334   123  14.90  26.80  14.90  3.282  3.282  2.949  0.333  0.000  374.3  238.5  135.8    0.0
 1990 335   124  23.40  26.40  14.70  5.124  5.124  4.593  0.530  0.000  379.4  243.1  136.4    0.0
 1990 336   125   9.00  23.50  14.10  1.894  1.894  1.694  0.200  0.000  381.3  244.8  136.6    0.0
 1990 337   126  30.10  22.90  11.40  6.150  6.150  5.486  0.665  0.000  387.5  250.2  137.2    0.0
 1990 338   127  28.70  27.90  10.60  6.199  6.199  5.513  0.686  0.000  393.7  255.7  137.9    0.0
 1990 339   128  16.80  32.30  20.30  4.103  4.103  3.639  0.465  0.000  397.8  259.4  138.4    0.0
 1990 340   129  16.80  25.60  17.50  3.731  3.731  3.298  0.433  0.000  401.5  262.7  138.8    0.0
 1990 341   130  26.90  25.20  16.00  5.880  5.880  5.179  0.701  0.000  407.4  267.9  139.5    0.0
 1990 342   131  30.30  25.00  12.00  6.400  6.400  5.616  0.784  0.000  413.8  273.5  140.3    0.0
 1990 343   132   9.00  19.70  14.20  1.812  1.812  1.584  0.229  0.000  415.6  275.1  140.5    0.0
 1990 344   133   9.10  19.50  15.90  1.856  1.856  1.614  0.242  0.000  417.5  276.7  140.8    0.0
 1990 345   134  24.70  25.00  14.70  5.342  5.342  4.624  0.718  0.000  422.8  281.3  141.5    0.0
 1990 346   135  14.70  22.00  10.50  2.959  2.959  2.549  0.411  0.000  425.8  283.9  141.9    0.0
 1990 347   136  19.00  24.00  14.30  4.052  4.052  3.470  0.581  0.000  429.8  287.3  142.5    0.0
 1990 348   137  29.20  21.90  10.30  5.868  5.868  4.998  0.871  0.000  435.7  292.3  143.4    0.0
 1990 349   138  31.80  27.30  10.90  6.877  6.877  5.820  1.056  0.000  442.6  298.1  144.4    0.0
 1990 350   139  28.70  30.20  13.70  6.568  6.568  5.524  1.045  0.000  449.1  303.7  145.5    0.0
 1990 351   140  14.40  30.10  18.00  3.402  3.402  2.842  0.560  0.000  452.5  306.5  146.0    0.0
 1990 352   141  27.40  25.60  17.30  6.124  6.124  5.078  1.046  0.000  458.7  311.6  147.1    0.0
 1990 353   142  31.40  25.60  14.40  6.865  6.865  5.648  1.217  0.000  465.5  317.2  148.3    0.0
 1990 354   143  31.60  27.10  14.00  7.018  7.018  5.725  1.293  0.000  472.5  323.0  149.6    0.0
 1990 355   144  25.60  29.80  15.90  5.958  5.958  4.816  1.142  0.000  478.5  327.8  150.7    0.0
 1990 356   145  10.00  25.70  19.00  2.277  2.277  1.822  0.454  0.000  480.8  329.6  151.2    0.0
 1990 357   146  19.50  28.40  17.80  4.542  4.542  3.598  0.944  0.000  485.3  333.2  152.1    0.0
 1990 358   147  13.10  24.40  15.50  2.864  2.864  2.243  0.621  0.000  488.2  335.4  152.7    0.0
 1990 359   148  29.40  25.70  12.70  6.393  6.393  4.948  1.445  0.000  494.6  340.4  154.2    0.0
 1990 360   149  31.40  31.30  15.30  7.446  7.446  5.690  1.756  0.000  502.0  346.1  155.9    0.0
 1990 361   150  31.40  31.50  18.00  7.623  7.623  5.749  1.874  0.000  509.6  351.8  157.8    0.0
 1990 362   151  31.40  21.00  13.30  6.501  5.956  4.833  1.122  0.000  515.6  356.7  158.9    0.0
 1990 363   152  29.60  23.30   9.40  6.116  6.116  4.476  1.640  0.000  521.7  361.1  160.6    0.0
 1990 364   153  30.80  27.20  11.40  6.803  6.717  4.898  1.819  0.000  528.4  366.0  162.4    0.0
 1990 365   154  31.50  29.40  14.80  7.344  6.450  5.200  1.250  0.000  534.9  371.2  163.6    0.0
 1991 001   155  24.30  31.60  17.10  5.918  5.132  4.117  1.015  0.000  540.0  375.3  164.7    0.0
 1991 002   156  24.10  29.20  20.30  5.863  4.882  4.004  0.877  0.000  544.9  379.4  165.5    0.0
 1991 003   157  26.70  29.10  17.40  6.363  5.045  4.261  0.784  0.000  549.9  383.6  166.3    0.0
 1991 004   158  31.30  28.60  13.40  7.209  5.444  4.728  0.715  0.000  555.4  388.3  167.0    0.0
 1991 005   159  31.30  28.20  13.80  7.213  5.292  4.629  0.662  0.000  560.7  393.0  167.7    0.0
 1991 006   160  31.30  30.20  13.00  7.352  5.233  4.614  0.619  0.000  565.9  397.6  168.3    0.0
 1991 007   161  29.60  32.40  17.10  7.362  5.096  4.512  0.584  0.000  571.0  402.1  168.9    0.0
 1991 008   162  29.90  34.30  19.30  7.726  5.173  4.619  0.554  0.000  576.2  406.7  169.5    0.0
 1991 009   163   9.90  24.30  21.30  2.331  2.331  1.358  0.973  0.000  578.5  408.1  170.4    0.0
 1991 010   164  27.90  30.80  19.20  6.956  6.956  4.053  2.903  0.000  585.5  412.1  173.3    0.0
 1991 011   165  25.10  27.80  15.90  5.904  5.904  3.440  2.464  0.000  591.4  415.6  175.8    0.0

*DSSAT Cropping System Model Ver. 4.0.2.000               Aug 02, 2016; 15:29:24

*RUN   2        : UYMZ                    
 MODEL          : MZCER040 - Maize           
 EXPERIMENT     : UYMZ0107 MZ    late to create DSS                             
 TREATMENT  1   : UYMZ                    

@YEAR DOY   DAS   SRAA   TMXA   TMNA   EOAA   ETAA   EPAA   ESAA   EFAD   ETAC   EPAC   ESAC   EFAC
 1991 211     0   4.20  20.20   8.80  0.925  0.925  0.000  0.925  0.000    0.9    0.0    0.9    0.0
 1991 212     1  11.30  15.40   5.60  2.257  2.257  0.000  2.257  0.000    3.2    0.0    3.2    0.0
 1991 213     2  15.40   6.50   0.50  2.516  2.516  0.000  2.516  0.000    5.7    0.0    5.7    0.0
 1991 214     3  13.80   9.60  -1.80  2.318  1.882  0.000  1.882  0.000    7.6    0.0    7.6    0.0
 1991 215     4  14.00  11.90  -0.90  2.472  2.472  0.000  2.472  0.000   10.1    0.0   10.1    0.0
 1991 216     5   4.40  10.90   4.00  0.806  0.806  0.000  0.806  0.000   10.9    0.0   10.9    0.0
 1991 217     6  14.60  15.00   4.30  2.862  2.862  0.000  2.862  0.000   13.7    0.0   13.7    0.0
 1991 218     7   4.50   9.70   1.90  0.790  0.790  0.000  0.790  0.000   14.5    0.0   14.5    0.0
 1991 219     8   7.50  15.40   2.30  1.449  1.449  0.000  1.449  0.000   16.0    0.0   16.0    0.0
 1991 220     9  11.00  16.70   7.50  2.281  1.406  0.000  1.406  0.000   17.4    0.0   17.4    0.0
 1991 221    10   5.10  15.70  10.40  1.072  1.072  0.000  1.072  0.000   18.4    0.0   18.4    0.0
 1991 222    11   4.80  11.90   8.10  0.933  0.933  0.000  0.933  0.000   19.4    0.0   19.4    0.0
 1991 223    12   7.80  13.10   5.60  1.505  1.505  0.000  1.505  0.000   20.9    0.0   20.9    0.0
 1991 224    13  12.50  15.80   1.50  2.411  1.136  0.000  1.136  0.000   22.0    0.0   22.0    0.0
 1991 225    14  11.60  18.50   7.30  2.463  0.952  0.000  0.952  0.000   23.0    0.0   23.0    0.0
 1991 226    15  15.20  25.70  10.80  3.656  0.836  0.000  0.836  0.000   23.8    0.0   23.8    0.0
 1991 227    16  10.70  25.30  15.40  2.658  0.754  0.000  0.754  0.000   24.6    0.0   24.6    0.0
 1991 228    17  12.60  27.30  14.40  3.180  0.692  0.000  0.692  0.000   25.2    0.0   25.2    0.0
 1991 229    18  16.10  24.70  11.80  3.855  0.653  0.009  0.644  0.000   25.9    0.0   25.9    0.0
 1991 230    19   9.30  23.80  13.60  2.235  0.613  0.009  0.604  0.000   26.5    0.0   26.5    0.0
 1991 231    20  12.70  26.00  10.90  3.066  0.590  0.019  0.571  0.000   27.1    0.0   27.1    0.0
 1991 232    21   9.30  26.00  11.80  2.261  0.562  0.019  0.543  0.000   27.7    0.1   27.6    0.0
 1991 233    22  14.70  26.00  11.60  3.566  0.557  0.038  0.518  0.000   28.2    0.1   28.1    0.0
 1991 234    23  13.80  26.40  14.60  3.445  0.543  0.046  0.497  0.000   28.8    0.1   28.6    0.0
 1991 235    24  16.70  21.60  14.50  3.922  0.570  0.092  0.478  0.000   29.3    0.2   29.1    0.0
 1991 236    25  16.20  20.70   9.90  3.610  0.578  0.117  0.461  0.000   29.9    0.3   29.6    0.0
 1991 237    26  14.10  24.70  11.10  3.338  0.577  0.131  0.446  0.000   30.5    0.5   30.0    0.0
 1991 238    27   5.40  16.90  11.90  1.161  0.490  0.058  0.432  0.000   31.0    0.5   30.4    0.0
 1991 239    28   5.30  16.20  10.20  1.110  1.110  0.062  1.048  0.000   32.1    0.6   31.5    0.0
 1991 240    29  10.80  21.40  12.10  2.465  0.600  0.152  0.448  0.000   32.7    0.8   31.9    0.0
 1991 241    30  10.70  22.80  14.40  2.530  0.616  0.182  0.434  0.000   33.3    0.9   32.4    0.0
 1991 242    31   7.30  24.20  16.00  1.776  0.573  0.151  0.422  0.000   33.9    1.1   32.8    0.0
 1991 243    32   5.50  16.80  11.00  1.162  1.162  0.117  1.045  0.000   35.0    1.2   33.8    0.0
 1991 244    33   9.40  16.10   8.10  1.912  1.716  0.208  1.509  0.000   36.8    1.4   35.3    0.0
 1991 245    34   5.50  17.90  11.20  1.180  0.764  0.135  0.629  0.000   37.5    1.5   36.0    0.0
 1991 246    35  10.50  22.80  14.00  2.456  2.456  0.304  2.151  0.000   40.0    1.8   38.1    0.0
 1991 247    36  18.10  25.80  13.20  4.352  2.301  0.609  1.692  0.000   42.3    2.5   39.8    0.0
 1991 248    37  18.40  27.20  13.90  4.510  1.930  0.722  1.208  0.000   44.2    3.2   41.0    0.0
 1991 249    38   5.70  22.50  16.00  1.338  1.238  0.246  0.993  0.000   45.4    3.4   42.0    0.0
 1991 250    39   5.80  17.20  12.80  1.234  1.214  0.252  0.962  0.000   46.7    3.7   43.0    0.0
 1991 251    40   6.40  17.10  10.50  1.329  1.329  0.288  1.040  0.000   48.0    4.0   44.0    0.0
 1991 252    41  15.60  20.00   8.40  3.300  3.300  0.753  2.547  0.000   51.3    4.7   46.6    0.0
 1991 253    42  17.50  22.00  10.20  3.854  2.347  0.931  1.416  0.000   53.6    5.6   48.0    0.0
 1991 254    43  20.20  25.00  10.80  4.633  2.299  1.202  1.097  0.000   55.9    6.9   49.1    0.0
 1991 255    44  19.90  27.80  14.10  4.830  2.293  1.364  0.929  0.000   58.2    8.2   50.0    0.0
 1991 256    45  15.40  30.70  16.10  3.905  2.042  1.222  0.820  0.000   60.3    9.4   50.8    0.0
 1991 257    46   6.10  21.00   7.80  1.277  1.189  0.446  0.742  0.000   61.5    9.9   51.6    0.0
 1991 258    47   6.20  12.30   8.20  1.148  1.148  0.421  0.728  0.000   62.6   10.3   52.3    0.0
 1991 259    48  11.50  23.50  12.40  2.579  2.579  0.960  1.619  0.000   65.2   11.3   53.9    0.0
 1991 260    49   6.30  21.10  17.10  1.420  1.420  0.568  0.852  0.000   66.6   11.8   54.8    0.0
 1991 261    50  18.90  19.70  13.10  4.030  4.030  1.710  2.319  0.000   70.6   13.5   57.1    0.0
 1991 262    51  21.70  17.30   8.80  4.298  4.298  1.897  2.401  0.000   74.9   15.4   59.5    0.0
 1991 263    52  13.10  22.60   8.30  2.770  2.677  1.258  1.419  0.000   77.6   16.7   60.9    0.0
 1991 264    53  11.00  27.50  12.60  2.554  2.554  1.213  1.341  0.000   80.2   17.9   62.3    0.0
 1991 265    54  20.40  20.30  10.30  4.225  4.225  2.139  2.087  0.000   84.4   20.0   64.3    0.0
 1991 266    55  21.60  16.90   3.20  3.981  3.518  2.087  1.430  0.000   87.9   22.1   65.8    0.0
 1991 267    56  22.30  19.00   4.90  4.320  3.282  2.178  1.104  0.000   91.2   24.3   66.9    0.0
 1991 268    57  20.30  21.10   8.70  4.186  3.078  2.145  0.933  0.000   94.3   26.5   67.8    0.0
 1991 269    58  21.70  23.40   7.80  4.563  3.244  2.421  0.823  0.000   97.5   28.9   68.6    0.0
 1991 270    59  17.70  27.80  13.80  4.114  3.022  2.277  0.744  0.000  100.5   31.2   69.4    0.0
 1991 271    60  22.20  16.10   9.00  4.236  3.184  2.499  0.685  0.000  103.7   33.7   70.1    0.0
 1991 272    61  21.80  18.00   7.50  4.205  3.168  2.530  0.638  0.000  106.9   36.2   70.7    0.0
 1991 273    62  21.10  20.20   9.70  4.272  3.220  2.621  0.599  0.000  110.1   38.8   71.3    0.0
 1991 274    63  19.70  18.40   7.00  3.787  2.955  2.388  0.567  0.000  113.1   41.2   71.9    0.0
 1991 275    64  22.00  18.40   5.70  4.171  4.171  2.677  1.494  0.000  117.2   43.9   73.4    0.0
 1991 276    65  23.00  19.80   3.80  4.362  4.362  2.843  1.520  0.000  121.6   46.7   74.9    0.0
 1991 277    66  19.10  21.70   6.30  3.810  3.810  2.455  1.354  0.000  125.4   49.2   76.2    0.0
 1991 278    67   7.10  13.60  10.60  1.314  1.314  0.865  0.449  0.000  126.7   50.0   76.7    0.0
 1991 279    68  13.30  12.50   7.00  2.333  2.333  1.556  0.777  0.000  129.0   51.6   77.5    0.0
 1991 280    69  14.80  14.20   4.00  2.583  2.583  1.731  0.851  0.000  131.6   53.3   78.3    0.0
 1991 281    70  23.60  16.90   3.90  4.291  4.291  2.834  1.458  0.000  135.9   56.2   79.8    0.0
 1991 282    71  20.30  20.90   7.30  4.038  4.038  2.629  1.409  0.000  140.0   58.8   81.2    0.0
 1991 283    72  24.30  23.10   7.20  4.963  4.963  3.297  1.665  0.000  144.9   62.1   82.8    0.0
 1991 284    73  24.30  25.00   8.70  5.140  4.728  3.494  1.234  0.000  149.7   65.6   84.1    0.0
 1991 285    74  24.40  29.20  12.20  5.572  5.572  3.888  1.684  0.000  155.2   69.5   85.8    0.0
 1991 286    75  21.90  33.00  20.00  5.507  5.507  3.976  1.531  0.000  160.7   73.4   87.3    0.0
 1991 287    76  11.80  32.00  21.10  2.945  2.945  2.221  0.724  0.000  163.7   75.7   88.0    0.0
 1991 288    77   7.50  23.50  17.60  1.652  1.652  1.281  0.371  0.000  165.3   76.9   88.4    0.0
 1991 289    78   7.60  17.80  11.60  1.477  1.477  1.162  0.315  0.000  166.8   78.1   88.7    0.0
 1991 290    79  15.50  16.00   8.40  2.848  2.848  2.266  0.582  0.000  169.7   80.4   89.3    0.0
 1991 291    80  26.30  21.50   8.40  5.211  5.211  4.161  1.050  0.000  174.9   84.5   90.3    0.0
 1991 292    81  26.30  24.60  11.00  5.538  5.538  4.465  1.073  0.000  180.4   89.0   91.4    0.0
 1991 293    82  26.30  24.90  12.50  5.619  5.619  4.596  1.023  0.000  186.0   93.6   92.4    0.0
 1991 294    83  24.40  29.60  14.20  5.576  5.576  4.628  0.947  0.000  191.6   98.2   93.4    0.0
 1991 295    84  20.20  29.90  19.80  4.819  4.819  4.071  0.748  0.000  196.4  102.3   94.1    0.0
 1991 296    85   8.30  19.10  12.60  1.638  1.638  1.411  0.228  0.000  198.1  103.7   94.3    0.0
 1991 297    86   7.90  17.40  10.20  1.490  1.490  1.292  0.199  0.000  199.5  105.0   94.5    0.0
 1991 298    87   7.90  21.30  15.40  1.641  1.641  1.428  0.213  0.000  201.2  106.4   94.8    0.0
 1991 299    88  22.70  24.90  16.30  4.960  4.960  4.337  0.624  0.000  206.1  110.8   95.4    0.0
 1991 300    89  12.20  23.30  14.70  2.576  2.576  2.291  0.284  0.000  208.7  113.1   95.7    0.0
 1991 301    90   8.00  20.10  14.90  1.624  1.624  1.454  0.170  0.000  210.3  114.5   95.8    0.0
 1991 302    91   8.00  16.80  15.20  1.560  1.560  1.399  0.160  0.000  211.9  115.9   96.0    0.0
 1991 303    92   8.10  18.00  14.60  1.595  1.595  1.434  0.162  0.000  213.5  117.3   96.2    0.0
 1991 304    93   8.10  20.70  14.60  1.652  1.652  1.487  0.165  0.000  215.2  118.8   96.3    0.0
 1991 305    94  17.90  22.30  13.70  3.696  3.696  3.330  0.366  0.000  218.8  122.2   96.7    0.0
 1991 306    95  25.50  22.30  12.20  5.198  5.198  4.694  0.504  0.000  224.0  126.8   97.2    0.0
 1991 307    96  20.80  22.80  12.80  4.288  4.288  3.878  0.410  0.000  228.3  130.7   97.6    0.0
 1991 308    97  27.90  25.00  11.90  5.866  5.866  5.312  0.554  0.000  234.2  136.0   98.2    0.0
 1991 309    98  20.90  25.90  13.20  4.489  4.489  4.069  0.420  0.000  238.7  140.1   98.6    0.0
 1991 310    99  11.60  24.30  16.20  2.503  2.503  2.271  0.232  0.000  241.2  142.4   98.8    0.0
 1991 311   100  21.40  22.80  13.70  4.442  4.442  4.033  0.410  0.000  245.6  146.4   99.2    0.0
 1991 312   101  20.00  21.40  12.40  4.035  4.035  3.663  0.372  0.000  249.7  150.1   99.6    0.0
 1991 313   102  27.20  23.90   9.20  5.513  5.513  5.002  0.511  0.000  255.2  155.1  100.1    0.0
 1991 314   103  17.60  25.70  11.30  3.713  3.713  3.366  0.347  0.000  258.9  158.4  100.5    0.0
 1991 315   104  18.50  19.00  10.10  3.545  3.545  3.212  0.333  0.000  262.4  161.7  100.8    0.0
 1991 316   105  27.30  19.00   6.40  5.057  5.057  4.576  0.482  0.000  267.5  166.2  101.3    0.0
 1991 317   106  18.50  21.00   8.40  3.588  3.588  3.239  0.349  0.000  271.1  169.5  101.6    0.0
 1991 318   107   8.50  19.90  12.10  1.679  1.679  1.513  0.166  0.000  272.8  171.0  101.8    0.0
 1991 319   108  11.90  22.20  14.00  2.461  2.461  2.215  0.246  0.000  275.2  173.2  102.0    0.0
 1991 320   109  19.50  23.20  12.10  4.019  4.019  3.615  0.404  0.000  279.2  176.8  102.4    0.0
 1991 321   110  21.50  23.00  11.30  4.391  4.391  3.946  0.445  0.000  283.6  180.8  102.9    0.0
 1991 322   111  23.70  27.00  13.30  5.168  5.168  4.639  0.529  0.000  288.8  185.4  103.4    0.0
 1991 323   112  29.90  21.30  13.80  6.105  6.105  5.478  0.627  0.000  294.9  190.9  104.0    0.0
 1991 324   113  24.60  24.40  13.00  5.189  5.189  4.637  0.552  0.000  300.1  195.5  104.6    0.0
 1991 325   114  29.40  28.60  12.50  6.499  6.499  5.784  0.716  0.000  306.6  201.3  105.3    0.0
 1991 326   115  28.60  33.30  13.80  6.738  6.738  5.976  0.761  0.000  313.3  207.3  106.1    0.0
 1991 327   116  24.90  35.20  18.50  6.250  6.250  5.526  0.723  0.000  319.6  212.8  106.8    0.0
 1991 328   117   8.80  19.10  13.80  1.750  1.750  1.543  0.207  0.000  321.3  214.3  107.0    0.0
 1991 329   118   8.80  18.80  14.20  1.750  1.750  1.539  0.212  0.000  323.1  215.9  107.2    0.0
 1991 330   119  14.10  20.20  12.60  2.818  2.818  2.470  0.348  0.000  325.9  218.3  107.5    0.0
 1991 331   120  22.40  24.20  10.70  4.637  4.637  4.054  0.583  0.000  330.5  222.4  108.1    0.0
 1991 332   121  22.30  29.00  14.90  5.058  5.058  4.411  0.647  0.000  335.6  226.8  108.8    0.0
 1991 333   122  16.00  25.60  19.00  3.602  3.602  3.134  0.469  0.000  339.2  229.9  109.2    0.0
 1991 334   123  30.00  28.20  17.50  6.881  6.881  5.972  0.909  0.000  346.1  235.9  110.2    0.0
 1991 335   124  24.30  27.80  14.60  5.428  5.428  4.701  0.727  0.000  351.5  240.6  110.9    0.0
 1991 336   125  29.40  30.10  14.90  6.760  6.760  5.843  0.917  0.000  358.3  246.5  111.8    0.0
 1991 337   126  15.40  27.50  18.00  3.520  3.520  3.037  0.483  0.000  361.8  249.5  112.3    0.0
 1991 338   127  29.90  31.50  16.10  7.050  7.050  6.063  0.987  0.000  368.8  255.6  113.3    0.0
 1991 339   128  14.60  27.30  18.30  3.340  3.340  2.862  0.478  0.000  372.2  258.4  113.7    0.0
 1991 340   129  29.40  31.80  18.90  7.104  7.104  6.065  1.040  0.000  379.3  264.5  114.8    0.0
 1991 341   130  16.80  27.80  19.00  3.889  3.889  3.307  0.583  0.000  383.2  267.8  115.4    0.0
 1991 342   131  28.30  29.80  17.70  6.639  6.639  5.619  1.020  0.000  389.8  273.4  116.4    0.0
 1991 343   132   9.00  22.80  18.90  1.967  1.967  1.657  0.310  0.000  391.8  275.1  116.7    0.0
 1991 344   133  24.70  27.00  18.80  5.668  5.668  4.750  0.918  0.000  397.4  279.8  117.6    0.0
 1991 345   134  19.50  27.60  17.30  4.457  4.457  3.715  0.742  0.000  401.9  283.5  118.4    0.0
 1991 346   135   9.40  23.80  16.60  2.045  2.045  1.695  0.350  0.000  403.9  285.2  118.7    0.0
 1991 347   136  29.90  28.40  15.10  6.792  6.792  5.593  1.199  0.000  410.7  290.8  119.9    0.0
 1991 348   137   9.40  21.90  16.70  2.003  2.003  1.639  0.365  0.000  412.7  292.5  120.3    0.0
 1991 349   138   9.10  23.50  16.70  1.979  1.979  1.607  0.372  0.000  414.7  294.1  120.6    0.0
 1991 350   139  20.20  26.90  17.10  4.591  4.591  3.701  0.890  0.000  419.3  297.8  121.5    0.0
 1991 351   140  27.60  27.80  17.90  6.383  6.383  5.104  1.279  0.000  425.7  302.9  122.8    0.0
 1991 352   141  26.20  31.10  17.80  6.288  6.288  4.986  1.301  0.000  432.0  307.9  124.1    0.0
 1991 353   142  21.60  31.20  17.50  5.184  5.184  4.074  1.110  0.000  437.2  311.9  125.2    0.0
 1991 354   143  28.80  31.00  18.00  6.929  6.929  5.392  1.537  0.000  444.1  317.3  126.8    0.0
 1991 355   144  23.90  32.40  19.90  5.925  5.925  4.563  1.362  0.000  450.0  321.9  128.1    0.0
 1991 356   145  11.20  27.10  20.30  2.631  2.631  2.004  0.627  0.000  452.7  323.9  128.8    0.0
 1991 357   146  23.80  30.00  19.50  5.748  5.748  4.326  1.422  0.000  458.4  328.2  130.2    0.0
 1991 358   147  27.30  30.80  20.60  6.713  6.713  4.989  1.724  0.000  465.1  333.2  131.9    0.0
 1991 359   148  21.00  25.60  17.40  4.763  4.763  3.494  1.269  0.000  469.9  336.7  133.2    0.0
 1991 360   149  23.90  22.70  13.40  5.075  5.075  3.672  1.404  0.000  474.9  340.4  134.6    0.0
 1991 361   150  29.90  25.20  12.40  6.505  6.505  4.636  1.869  0.000  481.5  345.0  136.4    0.0
 1991 362   151  28.80  26.60  14.90  6.512  6.512  4.569  1.942  0.000  488.0  349.6  138.4    0.0
 1991 363   152  30.80  29.30  14.60  7.181  6.606  4.958  1.648  0.000  494.6  354.5  140.0    0.0
 1991 364   153  23.60  30.40  17.40  5.699  5.699  3.869  1.830  0.000  500.3  358.4  141.9    0.0
 1991 365   154  19.50  33.00  21.10  4.982  4.982  3.323  1.659  0.000  505.3  361.7  143.5    0.0
 1992 001   155  10.80  28.00  20.30  2.604  2.604  1.705  0.899  0.000  507.9  363.4  144.4    0.0
 1992 002   156  19.00  28.60  19.10  4.579  4.579  2.939  1.640  0.000  512.4  366.4  146.1    0.0
 1992 003   157  28.00  23.20  14.20  6.108  6.108  3.841  2.267  0.000  518.5  370.2  148.3    0.0
 1992 004   158  31.30  26.80  14.90  7.185  6.918  4.425  2.493  0.000  525.5  374.6  150.8    0.0
 1992 005   159  30.40  28.90  13.10  7.066  7.066  4.260  2.805  0.000  532.5  378.9  153.6    0.0
 1992 006   160  20.50  27.20  15.70  4.776  4.357  2.816  1.541  0.000  536.9  381.7  155.2    0.0
 1992 007   161  25.30  29.60  15.90  6.081  4.653  3.502  1.151  0.000  541.5  385.2  156.3    0.0
 1992 008   162  27.90  31.00  20.10  7.038  4.916  3.955  0.960  0.000  546.5  389.2  157.3    0.0
 1992 009   163  23.60  31.00  20.00  5.962  4.108  3.266  0.842  0.000  550.6  392.4  158.1    0.0
 1992 010   164  21.00  30.00  20.90  5.282  3.652  2.894  0.758  0.000  554.2  395.3  158.9    0.0
 1992 011   165  31.30  27.00  14.90  7.276  4.682  3.986  0.696  0.000  558.9  399.3  159.6    0.0

*DSSAT Cropping System Model Ver. 4.0.2.000               Aug 02, 2016; 15:29:24

*RUN   3        : UYMZ                    
 MODEL          : MZCER040 - Maize           
 EXPERIMENT     : UYMZ0107 MZ    late to create DSS                             
 TREATMENT  1   : UYMZ                    

@YEAR DOY   DAS   SRAA   TMXA   TMNA   EOAA   ETAA   EPAA   ESAA   EFAD   ETAC   EPAC   ESAC   EFAC
 1992 211     0   9.60  16.80   9.10  2.024  1.570  0.000  1.570  0.000    1.6    0.0    1.6    0.0
 1992 212     1   4.30  13.60   7.50  0.852  0.852  0.000  0.852  0.000    2.4    0.0    2.4    0.0
 1992 213     2   6.30   9.40   3.80  1.124  1.124  0.000  1.124  0.000    3.5    0.0    3.5    0.0
 1992 214     3  13.60   8.80   0.20  2.306  2.306  0.000  2.306  0.000    5.9    0.0    5.9    0.0
 1992 215     4  13.70  12.00   0.10  2.450  2.450  0.000  2.450  0.000    8.3    0.0    8.3    0.0
 1992 216     5  13.70  13.70   0.50  2.530  2.015  0.000  2.015  0.000   10.3    0.0   10.3    0.0
 1992 217     6  10.00  12.50   1.20  1.825  1.825  0.000  1.825  0.000   12.1    0.0   12.1    0.0
 1992 218     7  12.80  17.40  -1.30  2.458  1.761  0.000  1.761  0.000   13.9    0.0   13.9    0.0
 1992 219     8  15.20  25.60   6.90  3.534  1.231  0.000  1.231  0.000   15.1    0.0   15.1    0.0
 1992 220     9   4.50  21.40   8.20  1.002  1.002  0.000  1.002  0.000   16.1    0.0   16.1    0.0
 1992 221    10  14.50  10.40   1.40  2.562  1.920  0.000  1.920  0.000   18.1    0.0   18.1    0.0
 1992 222    11  10.20  13.40  -0.60  1.852  0.931  0.000  0.931  0.000   19.0    0.0   19.0    0.0
 1992 223    12   9.40  15.40   7.80  1.919  0.822  0.000  0.822  0.000   19.8    0.0   19.8    0.0
 1992 224    13  15.10  14.90   3.90  2.943  0.744  0.000  0.744  0.000   20.6    0.0   20.6    0.0
 1992 225    14  14.50  15.90   6.10  2.932  0.684  0.000  0.684  0.000   21.2    0.0   21.2    0.0
 1992 226    15  15.60  18.00   2.80  3.150  0.637  0.000  0.637  0.000   21.9    0.0   21.9    0.0
 1992 227    16  14.70  18.40   3.00  2.992  0.599  0.000  0.599  0.000   22.5    0.0   22.5    0.0
 1992 228    17   9.50  19.20   5.70  2.007  0.567  0.000  0.567  0.000   23.0    0.0   23.0    0.0
 1992 229    18  15.30  22.20   8.70  3.458  0.539  0.000  0.539  0.000   23.6    0.0   23.6    0.0
 1992 230    19  12.30  23.20   9.70  2.841  0.515  0.000  0.515  0.000   24.1    0.0   24.1    0.0
 1992 231    20  14.00  20.80   9.20  3.120  0.494  0.000  0.494  0.000   24.6    0.0   24.6    0.0
 1992 232    21  13.40  19.60   7.90  2.904  0.480  0.004  0.476  0.000   25.1    0.0   25.1    0.0
 1992 233    22  13.30  19.40   6.20  2.829  0.465  0.007  0.459  0.000   25.5    0.0   25.5    0.0
 1992 234    23  16.90  23.10   9.50  3.890  0.456  0.012  0.444  0.000   26.0    0.0   26.0    0.0
 1992 235    24   7.80  20.10  13.90  1.793  1.208  0.008  1.200  0.000   27.2    0.0   27.2    0.0
 1992 236    25  17.00  19.30   9.60  3.723  3.723  0.024  3.699  0.000   30.9    0.1   30.9    0.0
 1992 237    26  17.80  21.00   7.10  3.899  0.550  0.030  0.520  0.000   31.5    0.1   31.4    0.0
 1992 238    27  18.00  21.20   5.80  3.907  0.534  0.036  0.498  0.000   32.0    0.1   31.9    0.0
 1992 239    28  17.90  20.30   6.20  3.851  0.520  0.040  0.479  0.000   32.5    0.2   32.4    0.0
 1992 240    29  17.60  25.40   6.30  4.054  0.510  0.048  0.462  0.000   33.0    0.2   32.8    0.0
 1992 241    30  11.50  18.80  11.40  2.539  0.482  0.035  0.447  0.000   33.5    0.2   33.3    0.0
 1992 242    31  14.20  24.40  11.00  3.357  0.498  0.065  0.433  0.000   34.0    0.3   33.7    0.0
 1992 243    32   5.50  20.90  15.20  1.287  0.457  0.036  0.420  0.000   34.5    0.3   34.1    0.0
 1992 244    33   7.20  13.80   9.60  1.453  1.453  0.054  1.399  0.000   35.9    0.4   35.5    0.0
 1992 245    34   7.50  14.00   7.20  1.482  0.645  0.060  0.585  0.000   36.6    0.5   36.1    0.0
 1992 246    35   5.70  14.80   8.60  1.155  0.604  0.050  0.555  0.000   37.2    0.5   36.7    0.0
 1992 247    36  14.90  17.40   7.30  3.093  0.673  0.144  0.529  0.000   37.8    0.7   37.2    0.0
 1992 248    37  18.80  18.80   6.80  3.959  0.710  0.204  0.506  0.000   38.6    0.9   37.7    0.0
 1992 249    38  18.30  21.20   6.10  3.954  0.714  0.227  0.486  0.000   39.3    1.1   38.2    0.0
 1992 250    39  18.30  18.80   8.70  3.914  0.723  0.254  0.468  0.000   40.0    1.3   38.7    0.0
 1992 251    40  17.80  20.60   9.70  3.931  0.737  0.285  0.453  0.000   40.7    1.6   39.1    0.0
 1992 252    41   5.90  20.10  13.60  1.337  0.548  0.110  0.438  0.000   41.3    1.7   39.5    0.0
 1992 253    42  11.20  20.00  13.40  2.527  0.660  0.235  0.425  0.000   41.9    2.0   40.0    0.0
 1992 254    43  12.60  21.60  13.10  2.889  0.716  0.303  0.413  0.000   42.7    2.3   40.4    0.0
 1992 255    44   8.60  21.20  14.90  1.988  1.988  0.236  1.752  0.000   44.6    2.5   42.1    0.0
 1992 256    45  16.90  19.30  12.30  3.719  3.719  0.498  3.221  0.000   48.4    3.0   45.4    0.0
 1992 257    46  10.20  16.70   8.80  2.095  2.095  0.308  1.787  0.000   50.5    3.3   47.1    0.0
 1992 258    47  17.10  20.10   6.20  3.590  2.633  0.556  2.076  0.000   53.1    3.9   49.2    0.0
 1992 259    48  19.70  21.30   9.00  4.304  3.058  0.710  2.347  0.000   56.1    4.6   51.6    0.0
 1992 260    49  12.60  22.60  12.60  2.881  1.887  0.516  1.371  0.000   58.0    5.1   52.9    0.0
 1992 261    50  14.90  26.70  15.20  3.648  1.795  0.719  1.076  0.000   59.8    5.8   54.0    0.0
 1992 262    51  19.80  16.60   9.30  4.033  4.033  0.900  3.133  0.000   63.9    6.7   57.1    0.0
 1992 263    52  21.60  19.30   5.20  4.390  2.067  1.026  1.041  0.000   65.9    7.7   58.2    0.0
 1992 264    53  21.40  25.60   5.90  4.756  2.053  1.159  0.894  0.000   68.0    8.9   59.1    0.0
 1992 265    54  21.20  30.00  10.20  5.136  2.151  1.355  0.796  0.000   70.1   10.3   59.9    0.0
 1992 266    55   6.50  12.70   8.80  1.232  1.232  0.362  0.870  0.000   71.4   10.6   60.7    0.0
 1992 267    56  16.00  18.60   6.50  3.227  3.227  0.967  2.261  0.000   74.6   11.6   63.0    0.0
 1992 268    57   6.60  13.20  10.60  1.279  1.279  0.398  0.882  0.000   75.9   12.0   63.9    0.0
 1992 269    58  21.20  12.50   4.50  3.819  3.819  1.219  2.600  0.000   79.7   13.2   66.5    0.0
 1992 270    59  20.60  14.20   0.80  3.668  3.668  1.162  2.506  0.000   83.4   14.4   69.0    0.0
 1992 271    60  21.70  20.00   4.50  4.417  3.443  1.089  2.354  0.000   86.8   15.5   71.4    0.0
 1992 272    61  23.00  21.40   5.30  4.800  3.570  1.238  2.332  0.000   90.4   16.7   73.7    0.0
 1992 273    62  23.30  23.20   6.10  5.002  2.758  1.390  1.368  0.000   93.1   18.1   75.1    0.0
 1992 274    63  22.50  26.20  10.30  5.181  2.648  1.573  1.075  0.000   95.8   19.7   76.1    0.0
 1992 275    64  12.50  26.40  11.00  2.888  1.883  0.968  0.915  0.000   97.7   20.6   77.0    0.0
 1992 276    65  11.80  21.80  13.00  2.605  2.558  0.958  1.600  0.000  100.2   21.6   78.6    0.0
 1992 277    66  17.90  20.60  11.10  3.812  2.362  1.508  0.853  0.000  102.6   23.1   79.5    0.0
 1992 278    67  18.00  25.50  11.70  4.084  2.482  1.715  0.767  0.000  105.1   24.8   80.3    0.0
 1992 279    68   7.10  18.20  11.80  1.461  1.360  0.658  0.702  0.000  106.4   25.5   81.0    0.0
 1992 280    69  24.40  15.90   7.40  4.655  4.655  2.187  2.468  0.000  111.1   27.6   83.4    0.0
 1992 281    70  21.30  15.60   4.20  3.915  3.284  1.878  1.406  0.000  114.4   29.5   84.8    0.0
 1992 282    71  24.30  19.00   3.40  4.661  4.661  2.221  2.439  0.000  119.0   31.7   87.3    0.0
 1992 283    72  24.30  21.00   6.60  4.946  3.786  2.302  1.484  0.000  122.8   34.0   88.8    0.0
 1992 284    73  25.10  25.30   7.30  5.424  3.746  2.619  1.127  0.000  126.6   36.7   89.9    0.0
 1992 285    74  16.70  27.20   9.20  3.739  2.856  1.910  0.947  0.000  129.4   38.6   90.8    0.0
 1992 286    75  22.70  24.00  12.40  4.992  3.542  2.710  0.832  0.000  133.0   41.3   91.7    0.0
 1992 287    76  25.10  25.60   8.60  5.431  5.431  3.111  2.320  0.000  138.4   44.4   94.0    0.0
 1992 288    77  24.70  29.50  11.40  5.710  5.710  3.413  2.297  0.000  144.1   47.8   96.3    0.0
 1992 289    78   7.60  31.50  15.50  1.845  1.845  1.162  0.683  0.000  145.9   49.0   97.0    0.0
 1992 290    79   9.30  20.50  15.70  1.979  1.979  1.292  0.688  0.000  147.9   50.3   97.7    0.0
 1992 291    80  23.40  21.20  12.00  4.853  4.853  3.275  1.578  0.000  152.8   53.5   99.2    0.0
 1992 292    81  25.90  21.20   7.50  5.150  5.150  3.567  1.583  0.000  157.9   57.1  100.8    0.0
 1992 293    82   9.10  19.80  11.20  1.832  1.832  1.291  0.541  0.000  159.8   58.4  101.4    0.0
 1992 294    83  24.10  18.60  10.30  4.726  4.726  3.397  1.329  0.000  164.5   61.8  102.7    0.0
 1992 295    84  26.10  21.30   5.50  5.076  5.076  3.705  1.370  0.000  169.6   65.5  104.1    0.0
 1992 296    85  24.90  24.50   7.60  5.139  5.139  3.801  1.338  0.000  174.7   69.3  105.4    0.0
 1992 297    86  25.00  27.30  12.00  5.528  5.528  4.162  1.367  0.000  180.2   73.5  106.8    0.0
 1992 298    87  24.60  30.90  14.60  5.771  5.481  4.449  1.032  0.000  185.7   77.9  107.8    0.0
 1992 299    88   9.50  26.40  17.60  2.160  2.160  1.711  0.449  0.000  187.9   79.6  108.2    0.0
 1992 300    89  26.70  27.40  17.30  6.114  6.114  4.921  1.193  0.000  194.0   84.5  109.4    0.0
 1992 301    90  27.40  30.00  15.80  6.373  6.373  5.242  1.132  0.000  200.4   89.8  110.6    0.0
 1992 302    91  10.50  15.30   6.40  1.862  1.862  1.562  0.300  0.000  202.2   91.3  110.9    0.0
 1992 303    92  27.70  21.90   3.90  5.266  5.266  4.432  0.834  0.000  207.5   95.8  111.7    0.0
 1992 304    93  26.80  21.80   6.40  5.210  5.210  4.348  0.862  0.000  212.7  100.1  112.6    0.0
 1992 305    94  26.90  23.80   6.80  5.384  5.384  4.527  0.857  0.000  218.1  104.7  113.4    0.0
 1992 306    95  27.10  27.10   9.00  5.755  5.755  4.880  0.875  0.000  223.8  109.5  114.3    0.0
 1992 307    96  27.30  30.20  13.00  6.200  6.200  5.316  0.885  0.000  230.0  114.8  115.2    0.0
 1992 308    97  21.90  19.80   9.40  4.236  4.236  3.683  0.554  0.000  234.3  118.5  115.7    0.0
 1992 309    98  27.20  14.10   6.50  4.707  4.707  4.198  0.509  0.000  239.0  122.7  116.2    0.0
 1992 310    99  24.50  16.40   2.70  4.222  4.222  3.785  0.437  0.000  243.2  126.5  116.7    0.0
 1992 311   100  27.00  19.20   4.80  4.963  4.963  4.331  0.632  0.000  248.2  130.8  117.3    0.0
 1992 312   101  27.40  21.50   7.30  5.317  5.317  4.656  0.661  0.000  253.5  135.5  118.0    0.0
 1992 313   102  28.00  25.20   8.30  5.747  5.747  5.065  0.682  0.000  259.2  140.6  118.7    0.0
 1992 314   103  28.20  29.80  10.00  6.202  6.202  5.503  0.699  0.000  265.4  146.1  119.4    0.0
 1992 315   104   8.60  22.00  16.00  1.805  1.805  1.613  0.192  0.000  267.2  147.7  119.5    0.0
 1992 316   105  23.60  28.40  16.10  5.348  5.348  4.788  0.560  0.000  272.6  152.5  120.1    0.0
 1992 317   106  28.00  29.50  15.30  6.382  6.382  5.743  0.638  0.000  279.0  158.2  120.7    0.0
 1992 318   107  28.50  27.90  12.90  6.256  6.256  5.654  0.602  0.000  285.2  163.9  121.3    0.0
 1992 319   108  19.40  31.40  14.40  4.483  4.483  4.061  0.422  0.000  289.7  167.9  121.8    0.0
 1992 320   109  23.00  25.50  17.30  5.078  5.078  4.611  0.466  0.000  294.8  172.5  122.2    0.0
 1992 321   110  28.80  20.40  11.50  5.689  5.689  5.174  0.515  0.000  300.5  177.7  122.7    0.0
 1992 322   111  28.20  21.50   7.70  5.467  5.467  4.969  0.498  0.000  305.9  182.7  123.2    0.0
 1992 323   112  28.80  23.90   7.20  5.738  5.738  5.208  0.529  0.000  311.7  187.9  123.8    0.0
 1992 324   113  29.50  28.10  11.20  6.402  6.402  5.805  0.597  0.000  318.1  193.7  124.4    0.0
 1992 325   114  22.20  30.00  13.80  5.026  5.026  4.558  0.468  0.000  323.1  198.3  124.8    0.0
 1992 326   115   8.70  21.20  13.60  1.769  1.769  1.605  0.164  0.000  324.9  199.9  125.0    0.0
 1992 327   116  25.70  19.30  10.00  4.939  4.939  4.478  0.461  0.000  329.8  204.3  125.5    0.0
 1992 328   117  22.10  20.60   6.40  4.185  4.185  3.788  0.397  0.000  334.0  208.1  125.9    0.0
 1992 329   118  24.00  26.00  11.10  5.076  5.076  4.585  0.492  0.000  339.1  212.7  126.4    0.0
 1992 330   119  21.90  23.90  15.40  4.676  4.676  4.220  0.456  0.000  343.7  216.9  126.8    0.0
 1992 331   120  19.00  26.00  14.30  4.124  4.124  3.721  0.403  0.000  347.9  220.7  127.2    0.0
 1992 332   121  30.10  27.20  12.90  6.555  6.519  5.913  0.606  0.000  354.4  226.6  127.8    0.0
 1992 333   122  21.00  27.70  13.50  4.624  4.624  4.155  0.469  0.000  359.0  230.7  128.3    0.0
 1992 334   123  19.80  29.80  16.90  4.586  4.586  4.105  0.481  0.000  363.6  234.8  128.8    0.0
 1992 335   124  21.90  28.00  18.70  5.040  5.040  4.497  0.543  0.000  368.6  239.3  129.3    0.0
 1992 336   125  29.50  23.90  14.00  6.239  6.239  5.551  0.688  0.000  374.9  244.9  130.0    0.0
 1992 337   126  30.20  24.80   8.90  6.193  6.193  5.494  0.699  0.000  381.1  250.4  130.7    0.0
 1992 338   127  26.20  27.40   9.70  5.588  5.588  4.944  0.644  0.000  386.7  255.3  131.3    0.0
 1992 339   128  30.30  29.10  13.50  6.797  6.797  5.998  0.799  0.000  393.5  261.3  132.1    0.0
 1992 340   129  18.70  28.20  13.80  4.162  4.162  3.664  0.499  0.000  397.6  265.0  132.6    0.0
 1992 341   130  25.20  29.60  18.90  5.925  5.925  5.203  0.722  0.000  403.5  270.2  133.4    0.0
 1992 342   131  23.30  26.40  15.40  5.144  5.144  4.508  0.637  0.000  408.7  274.7  134.0    0.0
 1992 343   132  25.40  27.90  14.80  5.682  5.682  4.969  0.714  0.000  414.4  279.7  134.7    0.0
 1992 344   133  21.00  26.70  16.50  4.695  4.695  4.098  0.598  0.000  419.1  283.7  135.3    0.0
 1992 345   134  22.70  27.30  18.10  5.175  5.175  4.508  0.667  0.000  424.2  288.3  136.0    0.0
 1992 346   135  23.20  26.50  15.70  5.146  5.146  4.469  0.677  0.000  429.4  292.7  136.7    0.0
 1992 347   136  29.50  27.30  13.40  6.490  6.490  5.616  0.875  0.000  435.9  298.3  137.5    0.0
 1992 348   137  30.90  30.20  14.90  7.115  7.115  6.132  0.983  0.000  443.0  304.5  138.5    0.0
 1992 349   138  28.90  28.40  15.70  6.563  6.242  5.633  0.609  0.000  449.2  310.1  139.1    0.0
 1992 350   139  30.30  28.00  10.00  6.553  6.553  5.599  0.954  0.000  455.8  315.7  140.1    0.0
 1992 351   140  24.80  29.80  12.50  5.591  5.591  4.754  0.837  0.000  461.4  320.5  140.9    0.0
 1992 352   141  19.40  27.60  17.70  4.440  4.440  3.756  0.684  0.000  465.8  324.2  141.6    0.0
 1992 353   142  29.70  30.40  14.50  6.854  6.854  5.766  1.088  0.000  472.7  330.0  142.7    0.0
 1992 354   143  18.00  30.80  14.60  4.179  4.179  3.495  0.684  0.000  476.8  333.5  143.4    0.0
 1992 355   144  31.80  33.80  18.10  7.831  7.831  6.508  1.324  0.000  484.7  340.0  144.7    0.0
 1992 356   145  25.50  32.40  15.70  6.085  6.085  5.022  1.063  0.000  490.8  345.0  145.8    0.0
 1992 357   146  11.20  29.40  18.60  2.644  2.644  2.166  0.478  0.000  493.4  347.2  146.2    0.0
 1992 358   147  11.20  27.70  20.80  2.639  2.639  2.145  0.494  0.000  496.0  349.3  146.7    0.0
 1992 359   148  27.80  28.90  17.70  6.494  6.494  5.234  1.260  0.000  502.5  354.6  148.0    0.0
 1992 360   149  22.90  27.40  15.10  5.160  5.160  4.123  1.037  0.000  507.7  358.7  149.0    0.0
 1992 361   150  31.40  27.40  13.20  6.979  6.979  5.525  1.454  0.000  514.7  364.2  150.5    0.0
 1992 362   151  31.00  28.00  12.60  6.914  6.914  5.419  1.495  0.000  521.6  369.6  152.0    0.0
 1992 363   152  30.00  32.00  13.10  7.042  6.711  5.460  1.251  0.000  528.3  375.1  153.2    0.0
 1992 364   153   9.10  25.60  19.70  2.091  2.091  1.602  0.488  0.000  530.4  376.7  153.7    0.0
 1992 365   154   9.10  23.30  19.60  2.037  2.037  1.542  0.495  0.000  532.4  378.2  154.2    0.0
 1992 366   155   9.10  20.20  19.20  1.959  1.959  1.463  0.496  0.000  534.4  379.7  154.7    0.0
 1993 001   156   9.10  21.20  19.60  1.992  1.992  1.467  0.525  0.000  536.4  381.2  155.2    0.0
 1993 002   157   9.10  21.80  19.40  2.006  2.006  1.457  0.549  0.000  538.4  382.6  155.8    0.0
 1993 003   158   9.10  21.90  19.70  2.017  2.017  1.444  0.573  0.000  540.4  384.1  156.4    0.0
 1993 004   159  14.90  28.90  19.80  3.588  3.588  2.530  1.058  0.000  544.0  386.6  157.4    0.0
 1993 005   160  23.60  30.80  21.50  5.883  5.883  4.083  1.800  0.000  549.9  390.7  159.2    0.0
 1993 006   161  29.90  32.00  19.70  7.466  7.466  5.097  2.369  0.000  557.3  395.8  161.6    0.0
 1993 007   162  12.50  27.20  20.30  2.980  2.897  1.999  0.897  0.000  560.2  397.8  162.5    0.0
 1993 008   163  20.20  26.60  20.10  4.784  4.784  3.152  1.632  0.000  565.0  400.9  164.1    0.0
 1993 009   164  30.70  26.90  16.00  7.084  7.084  4.576  2.508  0.000  572.1  405.5  166.6    0.0
 1993 010   165  30.90  31.10  16.00  7.494  7.137  4.743  2.395  0.000  579.2  410.2  169.0    0.0
 1993 011   166  31.30  32.20  17.60  7.789  7.789  4.825  2.964  0.000  587.0  415.1  172.0    0.0
 1993 012   167  30.90  32.70  19.60  7.858  6.208  4.758  1.450  0.000  593.2  419.8  173.4    0.0
 1993 013   168  22.70  33.00  20.70  5.849  4.570  3.457  1.113  0.000  597.8  423.3  174.5    0.0
 1993 014   169  17.40  30.10  22.30  4.407  3.478  2.540  0.938  0.000  601.3  425.8  175.5    0.0
 1993 015   170  26.90  30.80  22.50  6.889  6.889  3.871  3.018  0.000  608.2  429.7  178.5    0.0
 1993 016   171  17.50  28.50  22.00  4.356  4.356  2.448  1.908  0.000  612.5  432.1  180.4    0.0
 1993 017   172  25.50  23.30  16.60  5.737  5.161  3.224  1.937  0.000  617.7  435.4  182.3    0.0
 1993 018   173  25.10  24.80  11.70  5.526  5.526  3.105  2.421  0.000  623.2  438.5  184.8    0.0
