*SIMULATION OVERVIEW FILE

*DSSAT Cropping System Model Ver. 4.0.2.000               Aug 02, 2016; 15:29:24
                                                                                
*RUN   1        : UYMZ                                                          
 MODEL          : MZCER040 - MAIZE                                              
 EXPERIMENT     : UYMZ0107 SN late to create DSS                                
 TREATMENT  1   : UYMZ                                                          
                                                                                
 CROP           : MAIZE          CULTIVAR : CMEDIO UY        ECOTYPE :IB0001    
 STARTING DATE  : JUL 30 1990                                                   
 PLANTING DATE  : AUG  2 1990    PLANTS/m2 :  7.0     ROW SPACING :  15.cm      
 WEATHER        : UYTA   1990                                                   
 SOIL           : UYSS0N2002     TEXTURE :       -  N20-02    SNIA CLAY RISS    
 SOIL INITIAL C : DEPTH:125cm EXTR. H2O:186.3mm  NO3: 74.8kg/ha  NH4: 23.9kg/ha 
 WATER BALANCE  : AUTOMATIC IRRIGATION - REFILL PROFILE                         
 IRRIGATION     : AUTOMATIC - PLANTING -> MATURITY [ SOIL DEPTH:30.00m 50.%]    
 NITROGEN BAL.  : SOIL-N & N-UPTAKE SIMULATION; NO N-FIXATION                   
 N-FERTILIZER   :        3 kg/ha IN     3 APPLICATIONS                          
 RESIDUE/MANURE : INITIAL :     0 kg/ha ;       0 kg/ha IN     0 APPLICATIONS   
 ENVIRONM. OPT. : DAYL=    0.00  SRAD=    0.00  TMAX=    0.00  TMIN=    0.00    
                  RAIN=    0.00  CO2 = R330.00  DEW =    0.00  WIND=    0.00    
 SIMULATION OPT : WATER   :Y  NITROGEN:Y  N-FIX:N  PHOSPH :N  PESTS  :N         
                  PHOTO   :C  ET      :R  INFIL:S  HYDROL :R  SOM    :G         
 MANAGEMENT OPT : PLANTING:R  IRRIG   :A  FERT :D  RESIDUE:N  HARVEST:M  WTH:M  
                                                                                
*SUMMARY OF SOIL AND GENETIC INPUT PARAMETERS                                   
                                                                                
   SOIL LOWER UPPER   SAT  EXTR  INIT   ROOT   BULK     pH    NO3    NH4    ORG 
  DEPTH LIMIT LIMIT    SW    SW    SW   DIST   DENS                          C  
   cm   cm3/cm3    cm3/cm3    cm3/cm3         g/cm3         ugN/g  ugN/g     %  
------------------------------------------------------------------------------- 
  0-  5 0.331 0.542 0.585 0.211 0.394   1.00   1.11   6.50  15.00   1.50   2.74 
  5- 15 0.331 0.542 0.585 0.211 0.394   1.00   1.11   6.50  15.00   1.50   2.74 
 15- 30 0.331 0.542 0.585 0.211 0.394   1.00   1.11   6.50  15.00   1.50   2.74 
 30- 45 0.290 0.438 0.491 0.148 0.334   0.43   1.26   6.50   8.50   1.50   1.07 
 45- 60 0.292 0.431 0.480 0.138 0.375   0.39   1.29   6.27   4.53   1.50   0.90 
 60- 90 0.293 0.419 0.466 0.126 0.419   0.32   1.34   6.00   0.00   1.50   0.64 
 90-108 0.286 0.408 0.460 0.122 0.408   0.23   1.36   6.00   0.00   1.50   0.35 
108-125 0.276 0.395 0.456 0.119 0.395   0.12   1.38   6.00   0.00   1.50   0.14 
                                                                                
TOT-125  37.3  55.9  62.1  18.6  49.1  <--cm   -  kg/ha-->   74.8   23.9 166127 
SOIL ALBEDO    : 0.09      EVAPORATION LIMIT : 6.00         MIN. FACTOR  : 1.00 
RUNOFF CURVE # :10.00      DRAINAGE RATE     : 0.40         FERT. FACTOR : 1.00 
                                                                                
 MAIZE      CULTIVAR :UY0370-CMEDIO UY          ECOTYPE :IB0001                 
 P1     : 280.00  P2     : 0.0000  P5     : 750.00                              
 G2     : 800.00  G3     :  7.500  PHINT  : 38.900                              
                                                                                
                                                                                
                                                                                
*SIMULATED CROP AND SOIL STATUS AT MAIN DEVELOPMENT STAGES

 RUN NO.     1     UYMZ                    

        CROP GROWTH   BIOMASS         LEAF   CROP N     STRESS  
   DATE  AGE STAGE      kg/ha    LAI   NUM  kg/ha  %   H2O    N 
 ------  --- ---------- -----  -----  ----  ---  ---  ----  ----
 30 JUL    0 Start Sim      0   0.00   0.0    0  0.0  0.00  0.00
  2 AUG    0 Sowing         0   0.00   0.0    0  0.0  0.00  0.00
  3 AUG    1 Germinate      0   0.00   0.0    0  0.0  0.00  0.00
  9 AUG    7 Emergence     28   0.00   1.8    1  4.4  0.00  0.00
 24 SEP   53 End Juveni   335   0.36   9.7   14  4.1  0.00  0.00
 28 SEP   57 Floral Ini   452   0.50  10.4   17  3.7  0.00  0.01
 15 NOV  105 75% Silkin  7945   3.70  21.9  111  1.4  0.00  0.04
 27 NOV  117 Beg Gr Fil 10204   3.39  21.9  119  1.2  0.00  0.06
  9 JAN  160 End Gr Fil 19217   1.27  21.9  142  0.7  0.00  0.25
 11 JAN  162 Maturity   19217   1.27  21.9  142  0.7  0.00  0.58
 11 JAN  162 Harvest    19217   1.27  21.9  142  0.7  0.00  0.00


*MAIN GROWTH AND DEVELOPMENT VARIABLES

@     VARIABLE                          SIMULATED     MEASURED
      --------                          ---------     --------
      Anthesis day (dap)                      105          -99
      Physiological maturity day (dap)        162          -99
      Yield at harvest maturity (kg [dm]/    9529          -99
      Number at maturity (no/m2)             3658          -99
      Unit wt at maturity (g [dm]/unit)    0.2605          -99
      Number at maturity (no/unit)          522.5          -99
      Tops weight at maturity (kg [dm]/ha   19217          -99
      By-product produced (stalk) at matu    9765          -99
      Leaf area index, maximum               3.75          -99
      Harvest index at maturity             0.496          -99
      Grain N at maturity (kg/ha)             104          -99
      Tops N at maturity (kg/ha)              142          -99
      Stem N at maturity (kg/ha)               38          -99
      Grain N at maturity (%)                 1.1          -99
      Tops weight at anthesis (kg [dm]/ha    7843          -99
      Tops N at anthesis (kg/ha)              110          -99
      Leaf number per stem at maturity      21.88          -99


*ENVIRONMENTAL AND STRESS FACTORS

 |-----Development Phase------|-------------Environment--------------|---------Stress----------|
                              |--------Average-------|---Cumulative--|  (0=Min, 1=Max Stress)  |
                         Time  Temp  Temp Solar Photop         Evapo |----Water---|--Nitrogen--|
                         Span   Max   Min   Rad  [day]   Rain  Trans  Photo         Photo
                         days    øC    øC MJ/m2     hr     mm     mm  synth Growth  synth Growth
------------------------------------------------------------------------------------------------
 Emergence-End Juvenile    46  19.1   8.1  13.3  11.32  160.0   81.5  0.000  0.000  0.002  0.001
 End Juvenil-Floral Init    4  16.3   4.2  21.9  12.12    0.0    7.7  0.000  0.000  0.000  0.000
 Floral Init-End Lf Grow   48  23.9  13.5  19.2  12.94  183.4  181.4  0.000  0.000  0.100  0.040
 End Lf Grth-Beg Grn Fil   12  28.2  16.9  22.7  13.74   56.5   62.9  0.000  0.000  0.156  0.063
 Grain Filling Phase       43  26.5  14.5  24.8  14.01  284.2  224.2  0.000  0.000  0.452  0.237

                     Maize YIELD :     9529 kg/ha    [Dry weight] 

************************************************************************************************

*DSSAT Cropping System Model Ver. 4.0.2.000               Aug 02, 2016; 15:29:24
                                                                                
*RUN   2        : UYMZ                                                          
 MODEL          : MZCER040 - MAIZE                                              
 EXPERIMENT     : UYMZ0107 SN late to create DSS                                
 TREATMENT  1   : UYMZ                                                          
                                                                                
 CROP           : MAIZE          CULTIVAR : CMEDIO UY        ECOTYPE :IB0001    
 STARTING DATE  : JUL 30 1990                                                   
 PLANTING DATE  : AUG  2 1990    PLANTS/m2 :  7.0     ROW SPACING :  15.cm      
 WEATHER        : UYTA   1990                                                   
 SOIL           : UYSS0N2002     TEXTURE :       -  N20-02    SNIA CLAY RISS    
 SOIL INITIAL C : DEPTH:125cm EXTR. H2O:186.3mm  NO3: 74.8kg/ha  NH4: 23.9kg/ha 
 WATER BALANCE  : AUTOMATIC IRRIGATION - REFILL PROFILE                         
 IRRIGATION     : AUTOMATIC - PLANTING -> MATURITY [ SOIL DEPTH:30.00m 50.%]    
 NITROGEN BAL.  : SOIL-N & N-UPTAKE SIMULATION; NO N-FIXATION                   
 N-FERTILIZER   :        3 kg/ha IN     3 APPLICATIONS                          
 RESIDUE/MANURE : INITIAL :     0 kg/ha ;       0 kg/ha IN     0 APPLICATIONS   
 ENVIRONM. OPT. : DAYL=    0.00  SRAD=    0.00  TMAX=    0.00  TMIN=    0.00    
                  RAIN=    0.00  CO2 = R330.00  DEW =    0.00  WIND=    0.00    
 SIMULATION OPT : WATER   :Y  NITROGEN:Y  N-FIX:N  PHOSPH :N  PESTS  :N         
                  PHOTO   :C  ET      :R  INFIL:S  HYDROL :R  SOM    :G         
 MANAGEMENT OPT : PLANTING:R  IRRIG   :A  FERT :D  RESIDUE:N  HARVEST:M  WTH:M  
                                                                                
*SUMMARY OF SOIL AND GENETIC INPUT PARAMETERS                                   
                                                                                
   SOIL LOWER UPPER   SAT  EXTR  INIT   ROOT   BULK     pH    NO3    NH4    ORG 
  DEPTH LIMIT LIMIT    SW    SW    SW   DIST   DENS                          C  
   cm   cm3/cm3    cm3/cm3    cm3/cm3         g/cm3         ugN/g  ugN/g     %  
------------------------------------------------------------------------------- 
  0-  5 0.331 0.542 0.585 0.211 0.394   1.00   1.11   6.50  15.00   1.50   2.74 
  5- 15 0.331 0.542 0.585 0.211 0.394   1.00   1.11   6.50  15.00   1.50   2.74 
 15- 30 0.331 0.542 0.585 0.211 0.394   1.00   1.11   6.50  15.00   1.50   2.74 
 30- 45 0.290 0.438 0.491 0.148 0.334   0.43   1.26   6.50   8.50   1.50   1.07 
 45- 60 0.292 0.431 0.480 0.138 0.375   0.39   1.29   6.27   4.53   1.50   0.90 
 60- 90 0.293 0.419 0.466 0.126 0.419   0.32   1.34   6.00   0.00   1.50   0.64 
 90-108 0.286 0.408 0.460 0.122 0.408   0.23   1.36   6.00   0.00   1.50   0.35 
108-125 0.276 0.395 0.456 0.119 0.395   0.12   1.38   6.00   0.00   1.50   0.14 
                                                                                
TOT-125  37.3  55.9  62.1  18.6  49.1  <--cm   -  kg/ha-->   74.8   23.9 166127 
SOIL ALBEDO    : 0.09      EVAPORATION LIMIT : 6.00         MIN. FACTOR  : 1.00 
RUNOFF CURVE # :10.00      DRAINAGE RATE     : 0.40         FERT. FACTOR : 1.00 
                                                                                
 MAIZE      CULTIVAR :UY0370-CMEDIO UY          ECOTYPE :IB0001                 
 P1     : 280.00  P2     : 0.0000  P5     : 750.00                              
 G2     : 800.00  G3     :  7.500  PHINT  : 38.900                              
                                                                                
                                                                                
                                                                                
*SIMULATED CROP AND SOIL STATUS AT MAIN DEVELOPMENT STAGES

 RUN NO.     2     UYMZ                    

        CROP GROWTH   BIOMASS         LEAF   CROP N     STRESS  
   DATE  AGE STAGE      kg/ha    LAI   NUM  kg/ha  %   H2O    N 
 ------  --- ---------- -----  -----  ----  ---  ---  ----  ----
 30 JUL    0 Start Sim      0   0.00   0.0    0  0.0  0.00  0.00
  2 AUG    0 Sowing         0   0.00   0.0    0  0.0  0.00  0.00
  3 AUG    1 Germinate      0   0.00   0.0    0  0.0  0.00  0.00
 16 AUG   14 Emergence     28   0.00   2.0    1  4.4  0.00  0.00
 14 SEP   43 End Juveni   366   0.67   9.9   14  3.9  0.00  0.00
 18 SEP   47 Floral Ini   498   0.85  10.7   18  3.7  0.00  0.01
 19 NOV  109 75% Silkin  7851   3.27  22.1  103  1.3  0.00  0.05
  3 DEC  123 Beg Gr Fil 10194   2.87  22.1  110  1.1  0.00  0.07
  9 JAN  160 End Gr Fil 18216   1.16  22.1  133  0.7  0.00  0.26
 11 JAN  162 Maturity   18216   1.16  22.1  133  0.7  0.00  0.52
 11 JAN  162 Harvest    18216   1.16  22.1  133  0.7  0.00  0.00


*MAIN GROWTH AND DEVELOPMENT VARIABLES

@     VARIABLE                          SIMULATED     MEASURED
      --------                          ---------     --------
      Anthesis day (dap)                      109          -99
      Physiological maturity day (dap)        162          -99
      Yield at harvest maturity (kg [dm]/    8790          -99
      Number at maturity (no/m2)             3393          -99
      Unit wt at maturity (g [dm]/unit)    0.2590          -99
      Number at maturity (no/unit)          484.8          -99
      Tops weight at maturity (kg [dm]/ha   18216          -99
      By-product produced (stalk) at matu    9503          -99
      Leaf area index, maximum               3.48          -99
      Harvest index at maturity             0.483          -99
      Grain N at maturity (kg/ha)              94          -99
      Tops N at maturity (kg/ha)              133          -99
      Stem N at maturity (kg/ha)               38          -99
      Grain N at maturity (%)                 1.1          -99
      Tops weight at anthesis (kg [dm]/ha    7748          -99
      Tops N at anthesis (kg/ha)              102          -99
      Leaf number per stem at maturity      22.15          -99


*ENVIRONMENTAL AND STRESS FACTORS

 |-----Development Phase------|-------------Environment--------------|---------Stress----------|
                              |--------Average-------|---Cumulative--|  (0=Min, 1=Max Stress)  |
                         Time  Temp  Temp Solar Photop         Evapo |----Water---|--Nitrogen--|
                         Span   Max   Min   Rad  [day]   Rain  Trans  Photo         Photo
                         days    øC    øC MJ/m2     hr     mm     mm  synth Growth  synth Growth
------------------------------------------------------------------------------------------------
 Emergence-End Juvenile    29  22.5  12.4  11.9  11.26   26.9   35.7  0.000  0.000  0.003  0.001
 End Juvenil-Floral Init    4  21.9  11.1   9.8  11.79   19.7    6.3  0.000  0.000  0.001  0.000
 Floral Init-End Lf Grow   62  21.7  11.2  17.9  12.84  264.6  222.2  0.000  0.000  0.125  0.050
 End Lf Grth-Beg Grn Fil   14  25.9  14.4  22.0  13.83  123.1   69.5  0.000  0.000  0.194  0.077
 Grain Filling Phase       37  28.0  17.2  22.4  14.03  183.0  188.2  0.000  0.000  0.489  0.252

                     Maize YIELD :     8790 kg/ha    [Dry weight] 

************************************************************************************************

*DSSAT Cropping System Model Ver. 4.0.2.000               Aug 02, 2016; 15:29:24
                                                                                
*RUN   3        : UYMZ                                                          
 MODEL          : MZCER040 - MAIZE                                              
 EXPERIMENT     : UYMZ0107 SN late to create DSS                                
 TREATMENT  1   : UYMZ                                                          
                                                                                
 CROP           : MAIZE          CULTIVAR : CMEDIO UY        ECOTYPE :IB0001    
 STARTING DATE  : JUL 30 1990                                                   
 PLANTING DATE  : AUG  2 1990    PLANTS/m2 :  7.0     ROW SPACING :  15.cm      
 WEATHER        : UYTA   1990                                                   
 SOIL           : UYSS0N2002     TEXTURE :       -  N20-02    SNIA CLAY RISS    
 SOIL INITIAL C : DEPTH:125cm EXTR. H2O:186.3mm  NO3: 74.8kg/ha  NH4: 23.9kg/ha 
 WATER BALANCE  : AUTOMATIC IRRIGATION - REFILL PROFILE                         
 IRRIGATION     : AUTOMATIC - PLANTING -> MATURITY [ SOIL DEPTH:30.00m 50.%]    
 NITROGEN BAL.  : SOIL-N & N-UPTAKE SIMULATION; NO N-FIXATION                   
 N-FERTILIZER   :        3 kg/ha IN     3 APPLICATIONS                          
 RESIDUE/MANURE : INITIAL :     0 kg/ha ;       0 kg/ha IN     0 APPLICATIONS   
 ENVIRONM. OPT. : DAYL=    0.00  SRAD=    0.00  TMAX=    0.00  TMIN=    0.00    
                  RAIN=    0.00  CO2 = R330.00  DEW =    0.00  WIND=    0.00    
 SIMULATION OPT : WATER   :Y  NITROGEN:Y  N-FIX:N  PHOSPH :N  PESTS  :N         
                  PHOTO   :C  ET      :R  INFIL:S  HYDROL :R  SOM    :G         
 MANAGEMENT OPT : PLANTING:R  IRRIG   :A  FERT :D  RESIDUE:N  HARVEST:M  WTH:M  
                                                                                
*SUMMARY OF SOIL AND GENETIC INPUT PARAMETERS                                   
                                                                                
   SOIL LOWER UPPER   SAT  EXTR  INIT   ROOT   BULK     pH    NO3    NH4    ORG 
  DEPTH LIMIT LIMIT    SW    SW    SW   DIST   DENS                          C  
   cm   cm3/cm3    cm3/cm3    cm3/cm3         g/cm3         ugN/g  ugN/g     %  
------------------------------------------------------------------------------- 
  0-  5 0.331 0.542 0.585 0.211 0.394   1.00   1.11   6.50  15.00   1.50   2.74 
  5- 15 0.331 0.542 0.585 0.211 0.394   1.00   1.11   6.50  15.00   1.50   2.74 
 15- 30 0.331 0.542 0.585 0.211 0.394   1.00   1.11   6.50  15.00   1.50   2.74 
 30- 45 0.290 0.438 0.491 0.148 0.334   0.43   1.26   6.50   8.50   1.50   1.07 
 45- 60 0.292 0.431 0.480 0.138 0.375   0.39   1.29   6.27   4.53   1.50   0.90 
 60- 90 0.293 0.419 0.466 0.126 0.419   0.32   1.34   6.00   0.00   1.50   0.64 
 90-108 0.286 0.408 0.460 0.122 0.408   0.23   1.36   6.00   0.00   1.50   0.35 
108-125 0.276 0.395 0.456 0.119 0.395   0.12   1.38   6.00   0.00   1.50   0.14 
                                                                                
TOT-125  37.3  55.9  62.1  18.6  49.1  <--cm   -  kg/ha-->   74.8   23.9 166127 
SOIL ALBEDO    : 0.09      EVAPORATION LIMIT : 6.00         MIN. FACTOR  : 1.00 
RUNOFF CURVE # :10.00      DRAINAGE RATE     : 0.40         FERT. FACTOR : 1.00 
                                                                                
 MAIZE      CULTIVAR :UY0370-CMEDIO UY          ECOTYPE :IB0001                 
 P1     : 280.00  P2     : 0.0000  P5     : 750.00                              
 G2     : 800.00  G3     :  7.500  PHINT  : 38.900                              
                                                                                
                                                                                
                                                                                
*SIMULATED CROP AND SOIL STATUS AT MAIN DEVELOPMENT STAGES

 RUN NO.     3     UYMZ                    

        CROP GROWTH   BIOMASS         LEAF   CROP N     STRESS  
   DATE  AGE STAGE      kg/ha    LAI   NUM  kg/ha  %   H2O    N 
 ------  --- ---------- -----  -----  ----  ---  ---  ----  ----
 29 JUL    0 Start Sim      0   0.00   0.0    0  0.0  0.00  0.00
  1 AUG    0 Sowing         0   0.00   0.0    0  0.0  0.00  0.00
  2 AUG    1 Germinate      0   0.00   0.0    0  0.0  0.00  0.00
 18 AUG   17 Emergence     28   0.00   1.8    1  4.4  0.00  0.00
 26 SEP   56 End Juveni   309   0.41   9.5   13  4.1  0.00  0.00
 30 SEP   60 Floral Ini   439   0.60  10.3   16  3.7  0.00  0.01
 27 NOV  118 75% Silkin  8623   3.34  21.8  112  1.3  0.00  0.05
 10 DEC  131 Beg Gr Fil 10890   2.96  21.8  119  1.1  0.00  0.07
 15 JAN  167 End Gr Fil 18469   1.20  21.8  135  0.7  0.00  0.27
 18 JAN  170 Maturity   18469   1.20  21.8  135  0.7  0.00  0.54
 18 JAN  170 Harvest    18469   1.20  21.8  135  0.7  0.00  0.00


*MAIN GROWTH AND DEVELOPMENT VARIABLES

@     VARIABLE                          SIMULATED     MEASURED
      --------                          ---------     --------
      Anthesis day (dap)                      118          -99
      Physiological maturity day (dap)        170          -99
      Yield at harvest maturity (kg [dm]/    9202          -99
      Number at maturity (no/m2)             3731          -99
      Unit wt at maturity (g [dm]/unit)    0.2466          -99
      Number at maturity (no/unit)          533.1          -99
      Tops weight at maturity (kg [dm]/ha   18469          -99
      By-product produced (stalk) at matu    9350          -99
      Leaf area index, maximum               3.50          -99
      Harvest index at maturity             0.498          -99
      Grain N at maturity (kg/ha)              98          -99
      Tops N at maturity (kg/ha)              135          -99
      Stem N at maturity (kg/ha)               37          -99
      Grain N at maturity (%)                 1.1          -99
      Tops weight at anthesis (kg [dm]/ha    8487          -99
      Tops N at anthesis (kg/ha)              112          -99
      Leaf number per stem at maturity      21.79          -99


*ENVIRONMENTAL AND STRESS FACTORS

 |-----Development Phase------|-------------Environment--------------|---------Stress----------|
                              |--------Average-------|---Cumulative--|  (0=Min, 1=Max Stress)  |
                         Time  Temp  Temp Solar Photop         Evapo |----Water---|--Nitrogen--|
                         Span   Max   Min   Rad  [day]   Rain  Trans  Photo         Photo
                         days    øC    øC MJ/m2     hr     mm     mm  synth Growth  synth Growth
------------------------------------------------------------------------------------------------
 Emergence-End Juvenile    39  20.1   9.5  14.1  11.52   44.6   55.6  0.000  0.000  0.002  0.001
 End Juvenil-Floral Init    4  17.0   3.8  21.6  12.22   17.0   13.4  0.000  0.000  0.000  0.000
 Floral Init-End Lf Grow   58  23.6  10.4  22.2  13.16  109.6  254.7  0.000  0.000  0.118  0.047
 End Lf Grth-Beg Grn Fil   13  27.4  14.3  24.7  13.96   64.0   71.2  0.000  0.000  0.193  0.077
 Grain Filling Phase       36  28.2  17.1  22.3  14.02  245.1  182.2  0.000  0.000  0.498  0.258

                     Maize YIELD :     9202 kg/ha    [Dry weight] 

************************************************************************************************
