*PLANT N OUTPUT FILE

*DSSAT Cropping System Model Ver. 4.0.2.000               Aug 02, 2016; 15:29:24

*RUN   1        : UYMZ                    
 MODEL          : MZCER040 - Maize           
 EXPERIMENT     : UYMZ0107 MZ    late to create DSS                             
 TREATMENT  1   : UYMZ                    

@YEAR DOY   DAS   DAP   CNAD   GNAD   VNAD   GN%D   VN%D   NUPC   LNAD   SNAD   LN%D   SN%D   RN%D   SNN0C   SNN1C
 1990 214     3     0    0.0    0.0    0.0   0.00   0.00    0.0    0.0    0.0    0.0   0.00   0.00    0.00    0.00
 1990 215     4     1    0.0    0.0    0.0   0.00   0.00    0.0    0.0    0.0    0.0   0.00   0.00    0.00    0.00
 1990 216     5     2    0.0    0.0    0.0   0.00   0.00    0.0    0.0    0.0    0.0   0.00   0.00    0.00    0.00
 1990 217     6     3    0.0    0.0    0.0   0.00   0.00    0.0    0.0    0.0    0.0   0.00   0.00    0.00    0.00
 1990 218     7     4    0.0    0.0    0.0   0.00   0.00    0.0    0.0    0.0    0.0   0.00   0.00    0.00    0.00
 1990 219     8     5    0.0    0.0    0.0   0.00   0.00    0.0    0.0    0.0    0.0   0.00   0.00    0.00    0.00
 1990 220     9     6    0.0    0.0    0.0   0.00   0.00    0.0    0.0    0.0    0.0   0.00   0.00    0.00    0.00
 1990 221    10     7    1.2    0.0    1.2   0.00   4.40    0.0    0.6    0.6    4.4   4.40   0.00    0.00    0.00
 1990 222    11     8    1.3    0.0    1.3   0.00   4.55    0.2    0.6    0.6    4.5   4.55   1.09    0.00    0.00
 1990 223    12     9    1.3    0.0    1.3   0.00   4.55    0.2    0.6    0.6    4.5   4.55   1.05    0.00    0.00
 1990 224    13    10    1.3    0.0    1.3   0.00   4.48    0.2    0.6    0.6    4.5   4.48   1.13    0.00    0.00
 1990 225    14    11    1.2    0.0    1.2   0.00   4.45    0.2    0.6    0.6    4.4   4.45   1.15    0.00    0.00
 1990 226    15    12    1.2    0.0    1.2   0.00   4.45    0.2    0.6    0.6    4.4   4.45   1.11    0.00    0.00
 1990 227    16    13    1.2    0.0    1.2   0.00   4.40    0.2    0.6    0.6    4.4   4.40   1.15    0.00    0.00
 1990 228    17    14    1.2    0.0    1.2   0.00   4.39    0.3    0.6    0.6    4.4   4.39   1.21    0.00    0.00
 1990 229    18    15    1.2    0.0    1.2   0.00   4.37    0.3    0.6    0.6    4.4   4.37   1.24    0.00    0.00
 1990 230    19    16    1.2    0.0    1.2   0.00   4.35    0.4    0.6    0.6    4.4   4.35   1.25    0.00    0.01
 1990 231    20    17    1.2    0.0    1.2   0.00   3.96    0.4    0.7    0.6    4.0   3.96   1.18    0.00    0.01
 1990 232    21    18    1.3    0.0    1.3   0.00   3.73    0.6    0.8    0.5    3.7   3.73   1.22    0.00    0.01
 1990 233    22    19    1.5    0.0    1.5   0.00   3.85    0.9    1.0    0.5    3.8   3.85   1.22    0.00    0.01
 1990 234    23    20    1.7    0.0    1.7   0.00   3.89    1.1    1.1    0.5    3.9   3.89   1.21    0.00    0.02
 1990 235    24    21    1.9    0.0    1.9   0.00   4.09    1.4    1.3    0.6    4.1   4.09   1.34    0.00    0.02
 1990 236    25    22    1.9    0.0    1.9   0.00   4.04    1.5    1.4    0.6    4.0   4.04   1.20    0.00    0.02
 1990 237    26    23    2.0    0.0    2.0   0.00   3.63    1.6    1.5    0.5    3.6   3.63   1.16    0.00    0.03
 1990 238    27    24    2.4    0.0    2.4   0.00   3.54    2.1    1.9    0.5    3.5   3.54   1.20    0.00    0.03
 1990 239    28    25    2.8    0.0    2.8   0.00   3.99    2.5    2.2    0.6    4.0   3.99   1.14    0.00    0.04
 1990 240    29    26    3.0    0.0    3.0   0.00   4.20    3.1    2.4    0.6    4.2   4.20   1.54    0.00    0.04
 1990 241    30    27    3.0    0.0    3.0   0.00   4.13    3.1    2.4    0.6    4.1   4.13   1.43    0.00    0.04
 1990 242    31    28    3.0    0.0    3.0   0.00   3.83    3.1    2.4    0.5    3.8   3.83   1.36    0.00    0.04
 1990 243    32    29    3.2    0.0    3.2   0.00   4.14    3.1    2.6    0.6    4.1   4.14   1.09    0.00    0.05
 1990 244    33    30    3.3    0.0    3.3   0.00   4.19    3.2    2.7    0.6    4.2   4.19   1.16    0.00    0.05
 1990 245    34    31    3.3    0.0    3.3   0.00   4.17    3.2    2.7    0.6    4.2   4.17   1.17    0.00    0.06
 1990 246    35    32    3.3    0.0    3.3   0.00   4.00    3.2    2.7    0.6    4.0   4.00   1.17    0.00    0.06
 1990 247    36    33    3.4    0.0    3.4   0.00   3.96    3.2    2.8    0.6    4.0   3.96   1.07    0.00    0.06
 1990 248    37    34    3.6    0.0    3.6   0.00   3.71    3.4    3.0    0.5    3.7   3.71   1.07    0.00    0.07
 1990 249    38    35    4.0    0.0    4.0   0.00   4.03    3.8    3.4    0.6    4.0   4.03   1.07    0.00    0.07
 1990 250    39    36    4.1    0.0    4.1   0.00   3.97    3.9    3.5    0.6    4.0   3.97   1.08    0.00    0.08
 1990 251    40    37    4.2    0.0    4.2   0.00   3.99    4.0    3.6    0.6    4.0   3.99   1.08    0.00    0.08
 1990 252    41    38    4.3    0.0    4.3   0.00   3.44    4.2    3.8    0.5    3.4   3.44   1.10    0.00    0.09
 1990 253    42    39    5.1    0.0    5.1   0.00   3.52    5.0    4.6    0.5    3.5   3.52   1.10    0.00    0.10
 1990 254    43    40    5.8    0.0    5.8   0.00   3.59    5.8    5.3    0.5    3.6   3.59   1.10    0.00    0.10
 1990 255    44    41    6.5    0.0    6.5   0.00   3.66    6.7    6.0    0.5    3.7   3.66   1.21    0.00    0.11
 1990 256    45    42    7.2    0.0    7.2   0.00   3.99    7.7    6.6    0.6    4.0   3.99   1.45    0.00    0.11
 1990 257    46    43    7.3    0.0    7.3   0.00   3.95    7.8    6.7    0.6    3.9   3.95   1.38    0.00    0.12
 1990 258    47    44    7.4    0.0    7.4   0.00   3.82    7.9    6.9    0.5    3.8   3.82   1.21    0.00    0.13
 1990 259    48    45    7.7    0.0    7.7   0.00   3.66    8.3    7.2    0.5    3.7   3.66   1.14    0.00    0.14
 1990 260    49    46    8.4    0.0    8.4   0.00   3.71    9.0    7.9    0.5    3.7   3.71   1.10    0.00    0.15
 1990 261    50    47    9.0    0.0    9.0   0.00   3.69    9.6    8.5    0.5    3.7   3.69   1.10    0.00    0.16
 1990 262    51    48    9.7    0.0    9.7   0.00   3.70   10.5    9.1    0.5    3.7   3.70   1.16    0.00    0.17
 1990 263    52    49   10.3    0.0   10.3   0.00   3.70   11.0    9.8    0.5    3.7   3.70   1.08    0.00    0.18
 1990 264    53    50   10.9    0.0   10.9   0.00   3.65   11.6   10.4    0.5    3.6   3.65   1.09    0.00    0.19
 1990 265    54    51   11.7    0.0   11.7   0.00   3.37   12.9   11.2    0.5    3.4   3.37   1.21    0.00    0.20
 1990 266    55    52   13.5    0.0   13.5   0.00   3.82   15.4   12.9    0.5    3.8   3.82   1.37    0.00    0.21
 1990 267    56    53   13.7    0.0   13.7   0.00   4.10   16.6   13.1    0.6    4.1   4.10   1.50    0.00    0.22
 1990 268    57    54   13.7    0.0   13.7   0.00   3.96   16.6   13.2    0.6    4.0   3.96   1.33    0.00    0.22
 1990 269    58    55   13.7    0.0   13.7   0.00   3.69   16.6   13.2    0.5    3.7   3.69   1.15    0.00    0.22
 1990 270    59    56   15.6    0.0   15.6   0.00   3.78   19.0   15.1    0.5    3.8   3.78   1.17    0.00    0.24
 1990 271    60    57   16.6    0.0   16.6   0.00   3.68   19.6   16.1    0.5    3.7   3.68   1.07    0.00    0.27
 1990 272    61    58   17.7    0.0   17.7   0.00   3.57   21.7   17.2    0.5    3.6   3.57   1.18    0.00    0.29
 1990 273    62    59   19.3    0.0   19.3   0.00   3.54   23.9   18.8    0.5    3.5   3.54   1.18    0.00    0.31
 1990 274    63    60   21.8    0.0   21.8   0.00   3.50   26.9   21.2    0.6    3.5   3.50   1.18    0.00    0.34
 1990 275    64    61   23.6    0.0   23.6   0.00   3.46   30.0   22.9    0.6    3.5   3.46   1.22    0.00    0.38
 1990 276    65    62   25.9    0.0   25.9   0.00   3.43   33.0   25.2    0.8    3.4   3.43   1.18    0.00    0.41
 1990 277    66    63   30.0    0.0   30.0   0.00   3.38   36.9   28.9    1.1    3.4   3.38   1.12    0.00    0.45
 1990 278    67    64   32.3    0.0   32.3   0.00   3.34   38.9   31.0    1.3    3.3   3.34   1.07    0.00    0.50
 1990 279    68    65   35.5    0.0   35.5   0.00   3.31   42.2   33.8    1.7    3.3   3.31   1.08    0.00    0.53
 1990 280    69    66   38.0    0.0   38.0   0.00   3.27   44.7   35.9    2.0    3.3   3.27   1.07    0.00    0.57
 1990 281    70    67   40.3    0.0   40.3   0.00   3.24   47.8   37.9    2.4    3.2   3.24   1.12    0.00    0.61
 1990 282    71    68   42.5    0.0   42.5   0.00   3.22   52.4   39.7    2.9    3.2   3.22   1.23    0.00    0.66
 1990 283    72    69   45.1    0.0   45.1   0.00   3.20   55.9   41.7    3.4    3.2   3.20   1.19    0.00    0.71
 1990 284    73    70   48.2    0.0   48.2   0.00   3.17   58.0   44.1    4.1    3.2   3.17   1.08    0.00    0.77
 1990 285    74    71   50.4    0.0   50.4   0.00   3.14   63.5   45.7    4.7    3.1   3.14   1.21    0.00    0.83
 1990 286    75    72   52.5    0.0   52.5   0.00   3.12   67.4   47.3    5.2    3.1   3.12   1.21    0.00    0.90
 1990 287    76    73   55.4    0.0   55.4   0.00   3.10   71.6   49.3    6.1    3.1   3.10   1.18    0.00    0.98
 1990 288    77    74   57.5    0.0   57.5   0.00   3.08   75.7   50.8    6.7    3.1   3.08   1.18    0.00    1.06
 1990 289    78    75   59.3    0.0   59.3   0.00   3.06   79.6   52.0    7.3    3.1   3.06   1.18    0.00    1.16
 1990 290    79    76   61.7    0.0   61.7   0.00   3.04   81.7   53.6    8.1    3.0   3.04   1.11    0.00    1.27
 1990 291    80    77   65.7    0.0   65.7   0.00   3.01   87.6   56.1    9.6    3.0   3.01   1.14    0.00    1.37
 1990 292    81    78   70.0    0.0   70.0   0.00   2.98   91.7   58.7   11.3    3.0   2.98   1.10    0.00    1.49
 1990 293    82    79   74.2    0.0   74.2   0.00   2.94   96.3   61.1   13.1    2.9   2.94   1.09    0.00    1.60
 1990 294    83    80   77.9    0.0   77.9   0.00   2.89  101.4   63.0   14.9    2.9   2.89   1.11    0.00    1.72
 1990 295    84    81   80.8    0.0   80.8   0.00   2.81  105.6   64.1   16.7    2.8   2.81   1.09    0.00    1.84
 1990 296    85    82   83.7    0.0   83.7   0.00   2.72  109.0   65.1   18.6    2.7   2.72   1.08    0.00    1.97
 1990 297    86    83   86.0    0.0   86.0   0.00   2.65  111.9   65.8   20.3    2.6   2.65   1.06    0.00    2.10
 1990 298    87    84   88.3    0.0   88.3   0.00   2.56  114.3   66.2   22.0    2.6   2.56   1.05    0.00    2.24
 1990 299    88    85   90.0    0.0   90.0   0.00   2.42  116.3   65.8   24.2    2.4   2.42   1.03    0.00    2.37
 1990 300    89    86   91.7    0.0   91.7   0.00   2.26  118.1   66.2   25.5    2.3   2.26   1.03    0.00    2.51
 1990 301    90    87   93.1    0.0   93.1   0.00   2.22  119.6   66.4   26.7    2.2   2.22   1.04    0.00    2.64
 1990 302    91    88   94.4    0.0   94.4   0.00   2.14  120.9   65.9   28.5    2.1   2.14   1.04    0.00    2.78
 1990 303    92    89   95.4    0.0   95.4   0.00   2.00  122.0   64.2   31.2    2.0   2.00   1.02    0.00    2.92
 1990 304    93    90   96.4    0.0   96.4   0.00   1.92  123.1   63.2   33.2    1.9   1.92   0.98    0.00    3.06
 1990 305    94    91   97.3    0.0   97.3   0.00   1.84  124.1   62.1   35.1    1.8   1.84   0.96    0.00    3.20
 1990 306    95    92   98.0    0.0   98.0   0.00   1.77  124.9   61.0   36.9    1.8   1.77   0.95    0.00    3.33
 1990 307    96    93   98.7    0.0   98.7   0.00   1.72  125.7   60.3   38.4    1.7   1.72   0.95    0.00    3.47
 1990 308    97    94   99.4    0.0   99.4   0.00   1.68  126.4   59.8   39.5    1.7   1.68   0.92    0.00    3.61
 1990 309    98    95  100.6    0.0  100.6   0.00   1.68  127.9   60.1   40.5    1.7   1.68   0.87    0.00    3.75
 1990 310    99    96  102.0    0.0  102.0   0.00   1.66  129.6   60.2   41.8    1.7   1.66   0.86    0.00    3.89
 1990 311   100    97  103.3    0.0  103.3   0.00   1.64  131.1   59.9   43.4    1.6   1.64   0.84    0.00    4.04
 1990 312   101    98  104.5    0.0  104.5   0.00   1.62  132.4   59.9   44.5    1.6   1.62   0.84    0.00    4.18
 1990 313   102    99  105.5    0.0  105.5   0.00   1.59  133.7   59.6   46.0    1.6   1.59   0.84    0.00    4.32
 1990 314   103   100  106.5    0.0  106.5   0.00   1.56  134.9   59.1   47.4    1.6   1.56   0.82    0.00    4.47
 1990 315   104   101  107.4    0.0  107.4   0.00   1.52  135.9   58.6   48.9    1.5   1.52   0.81    0.00    4.61
 1990 316   105   102  108.3    0.0  108.3   0.00   1.49  137.0   58.2   50.1    1.5   1.49   0.82    0.00    4.76
 1990 317   106   103  109.2    0.0  109.2   0.00   1.44  138.0   57.3   51.9    1.4   1.44   0.80    0.00    4.91
 1990 318   107   104  110.0    0.0  110.0   0.00   1.40  139.0   56.8   53.3    1.4   1.40   0.81    0.00    5.05
 1990 319   108   105  110.9    0.0  110.9   0.00   1.54  140.0   61.6   49.3    1.5   1.54   0.81    0.00    5.20
 1990 320   109   106  111.6    0.0  111.6   0.00   1.55  140.9   61.3   50.3    1.5   1.55   0.80    0.00    5.35
 1990 321   110   107  112.2    0.0  112.2   0.00   1.56  141.7   60.9   51.3    1.6   1.56   0.77    0.00    5.50
 1990 322   111   108  112.9    0.0  112.9   0.00   1.56  142.6   60.3   52.6    1.6   1.56   0.76    0.00    5.65
 1990 323   112   109  113.7    0.0  113.7   0.00   1.56  143.6   59.5   54.2    1.6   1.56   0.75    0.00    5.80
 1990 324   113   110  114.3    0.0  114.3   0.00   1.57  144.5   58.9   55.4    1.6   1.57   0.76    0.00    5.96
 1990 325   114   111  115.0    0.0  115.0   0.00   1.57  145.5   58.2   56.8    1.6   1.57   0.75    0.00    6.11
 1990 326   115   112  115.8    0.0  115.8   0.00   1.58  146.7   57.5   58.3    1.6   1.58   0.73    0.00    6.27
 1990 327   116   113  116.6    0.0  116.6   0.00   1.59  147.9   56.8   59.8    1.6   1.59   0.72    0.00    6.42
 1990 328   117   114  117.3    0.0  117.3   0.00   1.60  149.1   56.0   61.3    1.6   1.60   0.72    0.00    6.58
 1990 329   118   115  118.0    0.0  118.0   0.00   1.60  150.3   55.1   62.9    1.6   1.60   0.73    0.00    6.75
 1990 330   119   116  118.6    0.0  118.6   0.00   1.61  151.3   54.2   64.4    1.6   1.61   0.73    0.00    6.91
 1990 331   120   117  119.1    1.8  117.2   1.51   1.59  152.2   53.6   63.6    1.6   1.59   0.72    0.00    7.08
 1990 332   121   118  119.7    4.0  115.6   1.50   1.57  153.3   52.9   62.8    1.6   1.57   0.72    0.00    7.25
 1990 333   122   119  120.2    7.2  113.0   1.50   1.53  154.2   51.7   61.4    1.5   1.53   0.71    0.00    7.42
 1990 334   123   120  120.7   10.7  110.0   1.49   1.49  155.2   50.3   59.7    1.5   1.49   0.72    0.00    7.59
 1990 335   124   121  121.2   14.1  107.1   1.49   1.46  156.0   49.0   58.2    1.5   1.46   0.73    0.00    7.76
 1990 336   125   122  121.7   16.8  104.9   1.48   1.43  156.9   48.1   56.8    1.4   1.43   0.74    0.00    7.94
 1990 337   126   123  122.2   19.0  103.2   1.47   1.40  157.7   47.2   56.0    1.4   1.40   0.73    0.00    8.12
 1990 338   127   124  122.7   21.9  100.8   1.47   1.37  158.5   46.1   54.7    1.4   1.37   0.73    0.00    8.30
 1990 339   128   125  123.2   25.9   97.3   1.46   1.32  159.3   44.5   52.9    1.3   1.32   0.74    0.00    8.48
 1990 340   129   126  123.7   29.4   94.4   1.45   1.28  160.2   43.1   51.2    1.3   1.28   0.75    0.00    8.66
 1990 341   130   127  124.1   32.5   91.6   1.44   1.24  160.8   41.9   49.7    1.2   1.24   0.75    0.00    8.84
 1990 342   131   128  124.6   35.0   89.6   1.43   1.22  161.5   41.0   48.6    1.2   1.22   0.74    0.00    9.03
 1990 343   132   129  125.1   36.9   88.1   1.43   1.20  162.3   40.3   47.8    1.2   1.20   0.75    0.00    9.22
 1990 344   133   130  125.3   39.1   86.2   1.42   1.17  162.7   39.5   46.7    1.2   1.17   0.76    0.00    9.40
 1990 345   134   131  125.6   41.9   83.7   1.41   1.14  163.1   38.3   45.4    1.1   1.14   0.76    0.00    9.59
 1990 346   135   132  126.0   43.6   82.4   1.40   1.12  163.7   37.7   44.7    1.1   1.12   0.76    0.00    9.78
 1990 347   136   133  126.4   46.1   80.3   1.39   1.09  164.3   36.7   43.6    1.1   1.09   0.76    0.00    9.97
 1990 348   137   134  126.9   47.7   79.2   1.39   1.08  165.1   36.2   43.0    1.1   1.08   0.76    0.00   10.16
 1990 349   138   135  127.4   50.1   77.3   1.38   1.05  165.9   35.3   41.9    1.0   1.05   0.76    0.00   10.35
 1990 350   139   136  127.9   53.3   74.6   1.37   1.01  166.7   34.1   40.5    1.0   1.01   0.76    0.00   10.55
 1990 351   140   137  128.5   56.5   71.9   1.35   0.98  167.5   33.1   38.9    1.0   0.98   0.77    0.00   10.74
 1990 352   141   138  129.0   59.4   69.6   1.34   0.95  168.2   31.8   37.8    0.9   0.95   0.77    0.00   10.94
 1990 353   142   139  129.4   61.8   67.5   1.33   0.92  168.8   30.9   36.7    0.9   0.92   0.77    0.00   11.13
 1990 354   143   140  130.0   64.4   65.6   1.32   0.89  169.7   30.0   35.6    0.9   0.89   0.77    0.00   11.33
 1990 355   144   141  130.6   67.3   63.3   1.31   0.86  170.6   28.9   34.4    0.9   0.86   0.77    0.00   11.53
 1990 356   145   142  131.1   70.1   61.0   1.29   0.84  171.4   28.4   32.6    0.8   0.84   0.78    0.00   11.73
 1990 357   146   143  131.5   72.9   58.7   1.28   0.81  171.9   27.3   31.3    0.8   0.81   0.79    0.00   11.93
 1990 358   147   144  132.0   75.0   57.0   1.27   0.79  172.6   26.7   30.3    0.8   0.79   0.79    0.00   12.14
 1990 359   148   145  132.4   76.9   55.5   1.26   0.76  173.2   25.7   29.8    0.8   0.76   0.79    0.00   12.34
 1990 360   149   146  133.1   79.6   53.5   1.25   0.73  174.2   24.6   29.0    0.7   0.73   0.80    0.00   12.54
 1990 361   150   147  133.8   82.0   51.7   1.23   0.70  175.1   23.6   28.1    0.7   0.70   0.80    0.00   12.75
 1990 362   151   148  134.5   83.4   51.1   1.22   0.69  176.1   23.4   27.8    0.7   0.69   0.81    0.00   12.96
 1990 363   152   149  135.2   84.5   50.6   1.22   0.69  177.0   23.1   27.5    0.7   0.69   0.81    0.00   13.16
 1990 364   153   150  135.8   86.2   49.5   1.21   0.67  177.9   22.6   26.9    0.7   0.67   0.81    0.00   13.37
 1990 365   154   151  136.4   88.4   48.0   1.19   0.65  178.8   21.9   26.0    0.7   0.65   0.82    0.00   13.58
 1991 001   155   152  137.0   90.6   46.4   1.18   0.63  179.6   21.3   25.0    0.6   0.63   0.83    0.00   13.79
 1991 002   156   153  137.6   92.7   44.9   1.16   0.62  180.4   20.8   24.0    0.6   0.62   0.83    0.00   14.01
 1991 003   157   154  138.2   94.8   43.5   1.15   0.60  181.2   20.3   23.1    0.6   0.60   0.84    0.00   14.22
 1991 004   158   155  138.9   96.5   42.4   1.14   0.59  182.1   19.8   22.5    0.6   0.59   0.85    0.00   14.43
 1991 005   159   156  139.5   98.2   41.3   1.13   0.58  182.9   19.4   22.0    0.6   0.58   0.86    0.00   14.65
 1991 006   160   157  140.2  100.0   40.2   1.11   0.56  183.8   18.9   21.3    0.6   0.56   0.86    0.00   14.86
 1991 007   161   158  141.0  101.8   39.2   1.10   0.56  184.6   18.7   20.5    0.6   0.56   0.87    0.00   15.08
 1991 008   162   159  142.0  103.6   38.4   1.09   0.55  185.4   18.5   19.8    0.6   0.55   0.87    0.00   15.29
 1991 009   163   160  142.0  103.6   38.4   1.09   0.55  186.2   18.5   19.8    0.6   0.55   0.87    0.00   15.29
 1991 010   164   161  142.0  103.6   38.4   1.09   0.55  187.0   18.5   19.8    0.6   0.55   0.87    0.00   15.29
 1991 011   165   162  142.0  103.6   38.4   1.09   0.55  187.7   18.5   19.8    0.6   0.55   0.87    0.00   15.29

*DSSAT Cropping System Model Ver. 4.0.2.000               Aug 02, 2016; 15:29:24

*RUN   2        : UYMZ                    
 MODEL          : MZCER040 - Maize           
 EXPERIMENT     : UYMZ0107 MZ    late to create DSS                             
 TREATMENT  1   : UYMZ                    

@YEAR DOY   DAS   DAP   CNAD   GNAD   VNAD   GN%D   VN%D   NUPC   LNAD   SNAD   LN%D   SN%D   RN%D   SNN0C   SNN1C
 1991 214     3     0    0.0    0.0    0.0   0.00   0.00    0.0    0.0    0.0    0.0   0.00   0.00    0.00    0.00
 1991 215     4     1    0.0    0.0    0.0   0.00   0.00    0.0    0.0    0.0    0.0   0.00   0.00    0.00    0.00
 1991 216     5     2    0.0    0.0    0.0   0.00   0.00    0.0    0.0    0.0    0.0   0.00   0.00    0.00    0.00
 1991 217     6     3    0.0    0.0    0.0   0.00   0.00    0.0    0.0    0.0    0.0   0.00   0.00    0.00    0.00
 1991 218     7     4    0.0    0.0    0.0   0.00   0.00    0.0    0.0    0.0    0.0   0.00   0.00    0.00    0.00
 1991 219     8     5    0.0    0.0    0.0   0.00   0.00    0.0    0.0    0.0    0.0   0.00   0.00    0.00    0.00
 1991 220     9     6    0.0    0.0    0.0   0.00   0.00    0.0    0.0    0.0    0.0   0.00   0.00    0.00    0.00
 1991 221    10     7    0.0    0.0    0.0   0.00   0.00    0.0    0.0    0.0    0.0   0.00   0.00    0.00    0.00
 1991 222    11     8    0.0    0.0    0.0   0.00   0.00    0.0    0.0    0.0    0.0   0.00   0.00    0.00    0.00
 1991 223    12     9    0.0    0.0    0.0   0.00   0.00    0.0    0.0    0.0    0.0   0.00   0.00    0.00    0.00
 1991 224    13    10    0.0    0.0    0.0   0.00   0.00    0.0    0.0    0.0    0.0   0.00   0.00    0.00    0.00
 1991 225    14    11    0.0    0.0    0.0   0.00   0.00    0.0    0.0    0.0    0.0   0.00   0.00    0.00    0.00
 1991 226    15    12    0.0    0.0    0.0   0.00   0.00    0.0    0.0    0.0    0.0   0.00   0.00    0.00    0.00
 1991 227    16    13    0.0    0.0    0.0   0.00   0.00    0.0    0.0    0.0    0.0   0.00   0.00    0.00    0.00
 1991 228    17    14    1.2    0.0    1.2   0.00   4.40    0.0    0.6    0.6    4.4   4.40   0.00    0.00    0.00
 1991 229    18    15    1.3    0.0    1.3   0.00   4.54    0.2    0.6    0.6    4.5   4.54   1.10    0.00    0.00
 1991 230    19    16    1.3    0.0    1.3   0.00   4.54    0.2    0.6    0.6    4.5   4.54   1.07    0.00    0.00
 1991 231    20    17    1.3    0.0    1.3   0.00   4.48    0.2    0.6    0.6    4.5   4.48   1.13    0.00    0.00
 1991 232    21    18    1.2    0.0    1.2   0.00   4.45    0.2    0.6    0.6    4.5   4.45   1.13    0.00    0.00
 1991 233    22    19    1.2    0.0    1.2   0.00   4.42    0.2    0.6    0.6    4.4   4.42   1.18    0.00    0.00
 1991 234    23    20    1.2    0.0    1.2   0.00   4.39    0.2    0.6    0.6    4.4   4.39   1.19    0.00    0.00
 1991 235    24    21    1.2    0.0    1.2   0.00   4.37    0.3    0.6    0.6    4.4   4.37   1.27    0.00    0.01
 1991 236    25    22    1.2    0.0    1.2   0.00   3.82    0.4    0.7    0.5    3.8   3.82   1.23    0.00    0.01
 1991 237    26    23    1.4    0.0    1.4   0.00   3.61    0.6    0.9    0.5    3.6   3.61   1.19    0.00    0.01
 1991 238    27    24    1.6    0.0    1.6   0.00   3.88    0.8    1.1    0.5    3.9   3.88   1.10    0.00    0.01
 1991 239    28    25    1.8    0.0    1.8   0.00   3.95    1.0    1.3    0.6    4.0   3.95   1.12    0.00    0.01
 1991 240    29    26    2.0    0.0    2.0   0.00   3.70    1.2    1.4    0.5    3.7   3.70   1.19    0.00    0.01
 1991 241    30    27    2.3    0.0    2.3   0.00   3.59    1.6    1.7    0.5    3.6   3.59   1.18    0.00    0.02
 1991 242    31    28    2.6    0.0    2.6   0.00   3.52    1.9    2.1    0.5    3.5   3.52   1.11    0.00    0.02
 1991 243    32    29    3.1    0.0    3.1   0.00   3.87    2.5    2.6    0.5    3.9   3.87   1.14    0.00    0.02
 1991 244    33    30    3.4    0.0    3.4   0.00   3.95    2.9    2.9    0.6    3.9   3.95   1.28    0.00    0.03
 1991 245    34    31    3.6    0.0    3.6   0.00   3.82    3.1    3.1    0.5    3.8   3.82   1.13    0.00    0.03
 1991 246    35    32    3.9    0.0    3.9   0.00   3.60    3.5    3.4    0.5    3.6   3.60   1.20    0.00    0.03
 1991 247    36    33    4.5    0.0    4.5   0.00   3.50    4.5    4.0    0.5    3.5   3.50   1.32    0.00    0.04
 1991 248    37    34    5.2    0.0    5.2   0.00   3.45    5.5    4.7    0.5    3.4   3.45   1.29    0.00    0.04
 1991 249    38    35    6.1    0.0    6.1   0.00   3.54    6.2    5.6    0.5    3.5   3.54   1.09    0.00    0.05
 1991 250    39    36    7.0    0.0    7.0   0.00   3.73    7.2    6.5    0.5    3.7   3.73   1.12    0.00    0.06
 1991 251    40    37    7.6    0.0    7.6   0.00   3.77    7.9    7.0    0.5    3.8   3.77   1.15    0.00    0.06
 1991 252    41    38    8.1    0.0    8.1   0.00   3.72    9.1    7.5    0.5    3.7   3.72   1.29    0.00    0.07
 1991 253    42    39    8.7    0.0    8.7   0.00   3.62   10.1    8.2    0.5    3.6   3.62   1.27    0.00    0.08
 1991 254    43    40    9.5    0.0    9.5   0.00   3.52   11.6    9.0    0.5    3.5   3.52   1.27    0.00    0.10
 1991 255    44    41   10.6    0.0   10.6   0.00   3.40   13.2   10.1    0.5    3.4   3.40   1.23    0.00    0.11
 1991 256    45    42   12.2    0.0   12.2   0.00   3.31   14.9   11.7    0.5    3.3   3.31   1.16    0.00    0.13
 1991 257    46    43   14.3    0.0   14.3   0.00   3.91   17.3   13.8    0.5    3.9   3.91   1.14    0.00    0.15
 1991 258    47    44   14.3    0.0   14.3   0.00   3.82   17.3   13.8    0.5    3.8   3.82   1.12    0.00    0.15
 1991 259    48    45   14.3    0.0   14.3   0.00   3.41   17.6   13.8    0.5    3.4   3.41   1.14    0.00    0.17
 1991 260    49    46   17.5    0.0   17.5   0.00   3.78   20.6   16.9    0.5    3.8   3.78   1.09    0.00    0.20
 1991 261    50    47   18.3    0.0   18.3   0.00   3.68   23.1   17.8    0.5    3.7   3.68   1.25    0.00    0.22
 1991 262    51    48   18.9    0.0   18.9   0.00   3.60   24.9   18.3    0.5    3.6   3.60   1.28    0.00    0.25
 1991 263    52    49   20.1    0.0   20.1   0.00   3.56   26.0   19.6    0.5    3.6   3.56   1.16    0.00    0.28
 1991 264    53    50   22.2    0.0   22.2   0.00   3.52   28.2   21.7    0.5    3.5   3.52   1.12    0.00    0.32
 1991 265    54    51   23.6    0.0   23.6   0.00   3.50   31.4   23.0    0.6    3.5   3.50   1.22    0.00    0.36
 1991 266    55    52   24.5    0.0   24.5   0.00   3.52   33.7   23.9    0.6    3.5   3.52   1.27    0.00    0.40
 1991 267    56    53   25.2    0.0   25.2   0.00   3.48   35.3   24.6    0.6    3.5   3.48   1.22    0.00    0.45
 1991 268    57    54   26.5    0.0   26.5   0.00   3.45   37.4   25.8    0.7    3.4   3.45   1.17    0.00    0.51
 1991 269    58    55   28.4    0.0   28.4   0.00   3.43   40.4   27.6    0.8    3.4   3.43   1.17    0.00    0.57
 1991 270    59    56   31.7    0.0   31.7   0.00   3.39   43.8   30.7    1.0    3.4   3.39   1.12    0.00    0.64
 1991 271    60    57   33.1    0.0   33.1   0.00   3.40   47.3   32.0    1.1    3.4   3.40   1.20    0.00    0.70
 1991 272    61    58   34.2    0.0   34.2   0.00   3.37   49.5   33.0    1.2    3.4   3.37   1.18    0.00    0.78
 1991 273    62    59   35.9    0.0   35.9   0.00   3.34   52.2   34.5    1.4    3.3   3.34   1.15    0.00    0.86
 1991 274    63    60   37.3    0.0   37.3   0.00   3.33   54.8   35.8    1.5    3.3   3.33   1.15    0.00    0.95
 1991 275    64    61   38.6    0.0   38.6   0.00   3.32   57.6   36.9    1.7    3.3   3.32   1.16    0.00    1.04
 1991 276    65    62   39.8    0.0   39.8   0.00   3.30   60.2   37.9    1.9    3.3   3.30   1.16    0.00    1.14
 1991 277    66    63   41.4    0.0   41.4   0.00   3.27   62.5   39.3    2.1    3.3   3.27   1.13    0.00    1.25
 1991 278    67    64   43.3    0.0   43.3   0.00   3.31   63.5   40.9    2.3    3.3   3.31   1.08    0.00    1.36
 1991 279    68    65   43.8    0.0   43.8   0.00   3.31   65.4   41.3    2.4    3.3   3.31   1.13    0.00    1.47
 1991 280    69    66   44.3    0.0   44.3   0.00   3.29   66.5   41.8    2.5    3.3   3.29   1.14    0.00    1.58
 1991 281    70    67   45.0    0.0   45.0   0.00   3.27   69.0   42.3    2.7    3.3   3.27   1.17    0.00    1.70
 1991 282    71    68   46.4    0.0   46.4   0.00   3.22   70.8   43.4    3.0    3.2   3.22   1.12    0.00    1.82
 1991 283    72    69   48.5    0.0   48.5   0.00   3.20   74.7   45.1    3.4    3.2   3.20   1.13    0.00    1.95
 1991 284    73    70   51.2    0.0   51.2   0.00   3.18   78.7   47.2    4.0    3.2   3.18   1.13    0.00    2.09
 1991 285    74    71   55.2    0.0   55.2   0.00   3.14   83.6   50.1    5.1    3.1   3.14   1.12    0.00    2.23
 1991 286    75    72   61.3    0.0   61.3   0.00   3.09   89.7   54.3    6.9    3.1   3.09   1.09    0.00    2.38
 1991 287    76    73   65.7    0.0   65.7   0.00   3.03   93.5   57.1    8.6    3.0   3.03   1.07    0.00    2.52
 1991 288    77    74   68.5    0.0   68.5   0.00   3.00   96.2   58.8    9.7    3.0   3.00   1.07    0.00    2.67
 1991 289    78    75   70.2    0.0   70.2   0.00   2.95   98.1   59.7   10.6    3.0   2.95   1.07    0.00    2.81
 1991 290    79    76   71.6    0.0   71.6   0.00   2.96  101.0   60.6   11.0    3.0   2.96   1.10    0.00    2.95
 1991 291    80    77   73.1    0.0   73.1   0.00   2.91  104.2   61.2   11.9    2.9   2.91   1.09    0.00    3.11
 1991 292    81    78   75.0    0.0   75.0   0.00   2.81  107.1   61.8   13.3    2.8   2.81   1.07    0.00    3.27
 1991 293    82    79   76.7    0.0   76.7   0.00   2.70  109.5   62.0   14.8    2.7   2.70   1.05    0.00    3.43
 1991 294    83    80   78.3    0.0   78.3   0.00   2.54  111.5   61.6   16.7    2.5   2.54   1.03    0.00    3.60
 1991 295    84    81   79.9    0.0   79.9   0.00   2.35  113.1   60.8   19.0    2.4   2.35   1.03    0.00    3.77
 1991 296    85    82   81.3    0.0   81.3   0.00   2.30  114.7   61.1   20.2    2.3   2.30   1.04    0.00    3.94
 1991 297    86    83   82.5    0.0   82.5   0.00   2.26  115.9   61.4   21.1    2.3   2.26   1.04    0.00    4.11
 1991 298    87    84   83.7    0.0   83.7   0.00   2.22  117.2   61.4   22.2    2.2   2.22   1.04    0.00    4.28
 1991 299    88    85   84.6    0.0   84.6   0.00   2.04  118.2   60.6   24.0    2.0   2.04   1.04    0.00    4.45
 1991 300    89    86   85.5    0.0   85.5   0.00   1.96  119.1   60.2   25.3    2.0   1.96   1.04    0.00    4.63
 1991 301    90    87   86.3    0.0   86.3   0.00   1.92  119.9   60.0   26.3    1.9   1.92   1.05    0.00    4.80
 1991 302    91    88   86.9    0.0   86.9   0.00   1.88  120.6   59.7   27.2    1.9   1.88   1.05    0.00    4.97
 1991 303    92    89   87.5    0.0   87.5   0.00   1.84  121.2   59.3   28.2    1.8   1.84   1.05    0.00    5.14
 1991 304    93    90   88.0    0.0   88.0   0.00   1.80  121.7   58.8   29.2    1.8   1.80   1.06    0.00    5.31
 1991 305    94    91   88.5    0.0   88.5   0.00   1.74  122.2   58.0   30.5    1.7   1.74   1.04    0.00    5.48
 1991 306    95    92   89.1    0.0   89.1   0.00   1.69  122.8   57.3   31.8    1.7   1.69   1.00    0.00    5.66
 1991 307    96    93   89.7    0.0   89.7   0.00   1.64  123.5   56.7   33.0    1.6   1.64   0.98    0.00    5.83
 1991 308    97    94   90.2    0.0   90.2   0.00   1.60  124.1   55.9   34.3    1.6   1.60   0.95    0.00    6.00
 1991 309    98    95   91.4    0.0   91.4   0.00   1.56  125.5   55.6   35.8    1.6   1.56   0.93    0.00    6.17
 1991 310    99    96   92.7    0.0   92.7   0.00   1.54  126.9   55.4   37.3    1.5   1.54   0.94    0.00    6.35
 1991 311   100    97   93.8    0.0   93.8   0.00   1.51  128.1   55.2   38.6    1.5   1.51   0.92    0.00    6.52
 1991 312   101    98   95.1    0.0   95.1   0.00   1.49  129.5   55.2   39.9    1.5   1.49   0.90    0.00    6.70
 1991 313   102    99   96.1    0.0   96.1   0.00   1.48  130.7   55.1   41.0    1.5   1.48   0.87    0.00    6.87
 1991 314   103   100   97.0    0.0   97.0   0.00   1.45  131.8   54.8   42.2    1.5   1.45   0.87    0.00    7.05
 1991 315   104   101   97.9    0.0   97.9   0.00   1.44  132.8   54.8   43.1    1.4   1.44   0.85    0.00    7.22
 1991 316   105   102   98.7    0.0   98.7   0.00   1.44  133.8   54.9   43.7    1.4   1.44   0.82    0.00    7.40
 1991 317   106   103   99.4    0.0   99.4   0.00   1.43  134.7   54.8   44.5    1.4   1.43   0.81    0.00    7.58
 1991 318   107   104  100.1    0.0  100.1   0.00   1.41  135.5   54.7   45.4    1.4   1.41   0.81    0.00    7.76
 1991 319   108   105  100.7    0.0  100.7   0.00   1.39  136.2   54.4   46.3    1.4   1.39   0.81    0.00    7.94
 1991 320   109   106  101.3    0.0  101.3   0.00   1.37  137.0   54.1   47.2    1.4   1.37   0.80    0.00    8.12
 1991 321   110   107  101.8    0.0  101.8   0.00   1.35  137.6   53.8   48.0    1.3   1.35   0.79    0.00    8.30
 1991 322   111   108  102.4    0.0  102.4   0.00   1.32  138.3   53.4   49.0    1.3   1.32   0.78    0.00    8.48
 1991 323   112   109  102.9    0.0  102.9   0.00   1.44  139.0   57.8   45.2    1.4   1.44   0.75    0.00    8.66
 1991 324   113   110  103.4    0.0  103.4   0.00   1.45  139.6   57.4   46.0    1.4   1.45   0.74    0.00    8.84
 1991 325   114   111  103.9    0.0  103.9   0.00   1.45  140.3   56.9   47.0    1.5   1.45   0.72    0.00    9.02
 1991 326   115   112  104.4    0.0  104.4   0.00   1.46  141.1   56.3   48.1    1.5   1.46   0.71    0.00    9.21
 1991 327   116   113  105.0    0.0  105.0   0.00   1.45  141.8   55.5   49.5    1.5   1.45   0.71    0.00    9.39
 1991 328   117   114  105.6    0.0  105.6   0.00   1.47  142.7   55.2   50.4    1.5   1.47   0.72    0.00    9.58
 1991 329   118   115  106.1    0.0  106.1   0.00   1.48  143.5   54.7   51.4    1.5   1.48   0.72    0.00    9.77
 1991 330   119   116  106.5    0.0  106.5   0.00   1.48  144.1   54.2   52.3    1.5   1.48   0.72    0.00    9.95
 1991 331   120   117  106.9    0.0  106.9   0.00   1.49  144.7   53.7   53.3    1.5   1.49   0.71    0.00   10.14
 1991 332   121   118  107.4    0.0  107.4   0.00   1.50  145.5   52.9   54.5    1.5   1.50   0.71    0.00   10.33
 1991 333   122   119  107.9    0.0  107.9   0.00   1.50  146.3   52.1   55.8    1.5   1.50   0.72    0.00   10.52
 1991 334   123   120  108.4    0.0  108.4   0.00   1.51  147.1   51.3   57.1    1.5   1.51   0.71    0.00   10.72
 1991 335   124   121  109.1    0.0  109.1   0.00   1.52  148.2   50.5   58.5    1.5   1.52   0.71    0.00   10.91
 1991 336   125   122  109.7    0.0  109.7   0.00   1.52  149.4   49.7   60.0    1.5   1.52   0.71    0.00   11.11
 1991 337   126   123  110.3    3.7  106.7   1.45   1.48  150.6   48.3   58.4    1.5   1.48   0.72    0.00   11.31
 1991 338   127   124  111.0    7.3  103.7   1.43   1.44  151.6   47.0   56.7    1.4   1.44   0.72    0.00   11.51
 1991 339   128   125  111.5   10.8  100.7   1.42   1.40  152.6   45.6   55.1    1.4   1.40   0.73    0.00   11.71
 1991 340   129   126  112.1   14.4   97.7   1.41   1.36  153.4   44.2   53.5    1.4   1.36   0.73    0.00   11.92
 1991 341   130   127  112.8   17.8   94.9   1.40   1.32  154.6   43.0   51.9    1.3   1.32   0.74    0.00   12.12
 1991 342   131   128  113.4   21.2   92.2   1.39   1.28  155.7   41.7   50.4    1.3   1.28   0.74    0.00   12.33
 1991 343   132   129  114.0   24.1   89.8   1.38   1.26  156.6   41.1   48.8    1.3   1.26   0.75    0.00   12.54
 1991 344   133   130  114.4   27.5   86.9   1.37   1.21  157.3   39.4   47.6    1.2   1.21   0.76    0.00   12.76
 1991 345   134   131  114.9   30.7   84.2   1.36   1.17  158.0   38.1   46.1    1.2   1.17   0.76    0.00   12.97
 1991 346   135   132  115.6   33.3   82.3   1.35   1.15  159.1   37.5   44.7    1.2   1.15   0.77    0.00   13.19
 1991 347   136   133  116.1   36.3   79.8   1.34   1.11  159.9   36.1   43.7    1.1   1.11   0.77    0.00   13.40
 1991 348   137   134  116.6   38.6   77.9   1.34   1.09  160.6   35.5   42.5    1.1   1.09   0.78    0.00   13.62
 1991 349   138   135  116.9   41.1   75.9   1.33   1.07  161.2   34.9   41.0    1.1   1.07   0.79    0.00   13.84
 1991 350   139   136  117.4   44.0   73.4   1.32   1.03  161.8   33.6   39.8    1.0   1.03   0.79    0.00   14.06
 1991 351   140   137  117.8   46.9   70.9   1.31   0.98  162.5   32.1   38.8    1.0   0.98   0.79    0.00   14.28
 1991 352   141   138  118.6   49.8   68.7   1.30   0.96  163.6   31.1   37.6    1.0   0.96   0.80    0.00   14.51
 1991 353   142   139  119.2   52.6   66.5   1.28   0.92  164.4   30.1   36.4    0.9   0.92   0.80    0.00   14.73
 1991 354   143   140  119.6   55.4   64.2   1.27   0.89  165.1   29.1   35.1    0.9   0.89   0.81    0.00   14.96
 1991 355   144   141  120.3   58.1   62.2   1.26   0.86  166.1   28.2   34.0    0.9   0.86   0.81    0.00   15.18
 1991 356   145   142  121.0   60.8   60.2   1.25   0.85  167.0   27.7   32.6    0.8   0.85   0.82    0.00   15.41
 1991 357   146   143  121.6   63.3   58.3   1.24   0.82  167.9   26.7   31.6    0.8   0.82   0.83    0.00   15.64
 1991 358   147   144  122.2   65.9   56.3   1.23   0.78  168.7   25.6   30.7    0.8   0.78   0.83    0.00   15.87
 1991 359   148   145  122.9   68.1   54.8   1.21   0.76  169.7   24.8   30.0    0.8   0.76   0.84    0.00   16.10
 1991 360   149   146  123.7   69.6   54.0   1.21   0.75  170.7   24.5   29.6    0.8   0.75   0.84    0.00   16.33
 1991 361   150   147  124.3   71.3   53.1   1.20   0.74  171.7   24.0   29.0    0.7   0.74   0.85    0.00   16.56
 1991 362   151   148  125.2   73.3   51.9   1.19   0.72  172.8   23.5   28.4    0.7   0.72   0.85    0.00   16.80
 1991 363   152   149  125.8   75.4   50.4   1.18   0.70  173.7   22.8   27.6    0.7   0.70   0.86    0.00   17.03
 1991 364   153   150  126.5   77.6   48.9   1.16   0.68  174.6   22.2   26.7    0.7   0.68   0.86    0.00   17.27
 1991 365   154   151  127.1   79.8   47.3   1.15   0.67  175.4   21.7   25.6    0.7   0.67   0.87    0.00   17.51
 1992 001   155   152  127.8   81.9   46.0   1.14   0.66  176.4   21.5   24.4    0.7   0.66   0.88    0.00   17.75
 1992 002   156   153  128.5   83.9   44.6   1.13   0.65  177.2   21.2   23.4    0.6   0.65   0.89    0.00   17.99
 1992 003   157   154  129.1   85.3   43.7   1.12   0.63  178.0   20.7   23.1    0.6   0.63   0.89    0.00   18.23
 1992 004   158   155  129.8   87.1   42.8   1.11   0.62  179.0   20.2   22.6    0.6   0.62   0.90    0.00   18.47
 1992 005   159   156  130.5   88.8   41.7   1.10   0.60  179.9   19.6   22.1    0.6   0.60   0.91    0.00   18.71
 1992 006   160   157  131.2   90.5   40.7   1.09   0.59  180.8   19.4   21.3    0.6   0.59   0.91    0.00   18.96
 1992 007   161   158  131.9   92.4   39.5   1.08   0.58  181.6   19.1   20.5    0.6   0.58   0.92    0.00   19.20
 1992 008   162   159  132.5   94.2   38.4   1.07   0.57  182.5   18.7   19.7    0.6   0.57   0.93    0.00   19.45
 1992 009   163   160  132.5   94.2   38.4   1.07   0.57  183.3   18.7   19.7    0.6   0.57   0.93    0.00   19.45
 1992 010   164   161  132.5   94.2   38.4   1.07   0.57  184.1   18.7   19.7    0.6   0.57   0.93    0.00   19.45
 1992 011   165   162  132.5   94.2   38.4   1.07   0.57  185.0   18.7   19.7    0.6   0.57   0.93    0.00   19.45

*DSSAT Cropping System Model Ver. 4.0.2.000               Aug 02, 2016; 15:29:24

*RUN   3        : UYMZ                    
 MODEL          : MZCER040 - Maize           
 EXPERIMENT     : UYMZ0107 MZ    late to create DSS                             
 TREATMENT  1   : UYMZ                    

@YEAR DOY   DAS   DAP   CNAD   GNAD   VNAD   GN%D   VN%D   NUPC   LNAD   SNAD   LN%D   SN%D   RN%D   SNN0C   SNN1C
 1992 214     3     0    0.0    0.0    0.0   0.00   0.00    0.0    0.0    0.0    0.0   0.00   0.00    0.00    0.00
 1992 215     4     1    0.0    0.0    0.0   0.00   0.00    0.0    0.0    0.0    0.0   0.00   0.00    0.00    0.00
 1992 216     5     2    0.0    0.0    0.0   0.00   0.00    0.0    0.0    0.0    0.0   0.00   0.00    0.00    0.00
 1992 217     6     3    0.0    0.0    0.0   0.00   0.00    0.0    0.0    0.0    0.0   0.00   0.00    0.00    0.00
 1992 218     7     4    0.0    0.0    0.0   0.00   0.00    0.0    0.0    0.0    0.0   0.00   0.00    0.00    0.00
 1992 219     8     5    0.0    0.0    0.0   0.00   0.00    0.0    0.0    0.0    0.0   0.00   0.00    0.00    0.00
 1992 220     9     6    0.0    0.0    0.0   0.00   0.00    0.0    0.0    0.0    0.0   0.00   0.00    0.00    0.00
 1992 221    10     7    0.0    0.0    0.0   0.00   0.00    0.0    0.0    0.0    0.0   0.00   0.00    0.00    0.00
 1992 222    11     8    0.0    0.0    0.0   0.00   0.00    0.0    0.0    0.0    0.0   0.00   0.00    0.00    0.00
 1992 223    12     9    0.0    0.0    0.0   0.00   0.00    0.0    0.0    0.0    0.0   0.00   0.00    0.00    0.00
 1992 224    13    10    0.0    0.0    0.0   0.00   0.00    0.0    0.0    0.0    0.0   0.00   0.00    0.00    0.00
 1992 225    14    11    0.0    0.0    0.0   0.00   0.00    0.0    0.0    0.0    0.0   0.00   0.00    0.00    0.00
 1992 226    15    12    0.0    0.0    0.0   0.00   0.00    0.0    0.0    0.0    0.0   0.00   0.00    0.00    0.00
 1992 227    16    13    0.0    0.0    0.0   0.00   0.00    0.0    0.0    0.0    0.0   0.00   0.00    0.00    0.00
 1992 228    17    14    0.0    0.0    0.0   0.00   0.00    0.0    0.0    0.0    0.0   0.00   0.00    0.00    0.00
 1992 229    18    15    0.0    0.0    0.0   0.00   0.00    0.0    0.0    0.0    0.0   0.00   0.00    0.00    0.00
 1992 230    19    16    0.0    0.0    0.0   0.00   0.00    0.0    0.0    0.0    0.0   0.00   0.00    0.00    0.00
 1992 231    20    17    1.2    0.0    1.2   0.00   4.40    0.0    0.6    0.6    4.4   4.40   0.00    0.00    0.00
 1992 232    21    18    1.3    0.0    1.3   0.00   4.54    0.2    0.6    0.6    4.5   4.54   1.08    0.00    0.00
 1992 233    22    19    1.3    0.0    1.3   0.00   4.52    0.2    0.6    0.6    4.5   4.52   1.10    0.00    0.00
 1992 234    23    20    1.3    0.0    1.3   0.00   4.50    0.2    0.6    0.6    4.5   4.50   1.11    0.00    0.00
 1992 235    24    21    1.3    0.0    1.3   0.00   4.50    0.2    0.6    0.6    4.5   4.50   1.08    0.00    0.00
 1992 236    25    22    1.2    0.0    1.2   0.00   4.46    0.2    0.6    0.6    4.5   4.46   1.15    0.00    0.00
 1992 237    26    23    1.2    0.0    1.2   0.00   4.44    0.2    0.6    0.6    4.4   4.44   1.17    0.00    0.00
 1992 238    27    24    1.2    0.0    1.2   0.00   4.42    0.3    0.6    0.6    4.4   4.42   1.18    0.00    0.00
 1992 239    28    25    1.2    0.0    1.2   0.00   4.41    0.3    0.6    0.6    4.4   4.41   1.18    0.00    0.01
 1992 240    29    26    1.2    0.0    1.2   0.00   4.39    0.3    0.6    0.6    4.4   4.39   1.18    0.00    0.01
 1992 241    30    27    1.2    0.0    1.2   0.00   4.37    0.3    0.6    0.6    4.4   4.37   1.15    0.00    0.01
 1992 242    31    28    1.2    0.0    1.2   0.00   4.34    0.4    0.6    0.6    4.3   4.34   1.19    0.00    0.01
 1992 243    32    29    1.2    0.0    1.2   0.00   3.97    0.4    0.7    0.6    4.0   3.97   1.17    0.00    0.01
 1992 244    33    30    1.3    0.0    1.3   0.00   4.04    0.5    0.8    0.6    4.0   4.04   1.15    0.00    0.01
 1992 245    34    31    1.4    0.0    1.4   0.00   4.11    0.6    0.8    0.6    4.1   4.11   1.18    0.00    0.01
 1992 246    35    32    1.5    0.0    1.5   0.00   4.03    0.6    0.9    0.6    4.0   4.03   1.13    0.00    0.02
 1992 247    36    33    1.6    0.0    1.6   0.00   3.94    0.8    1.0    0.6    3.9   3.94   1.28    0.00    0.02
 1992 248    37    34    1.7    0.0    1.7   0.00   3.88    1.1    1.1    0.5    3.9   3.88   1.30    0.00    0.02
 1992 249    38    35    1.8    0.0    1.8   0.00   3.81    1.4    1.3    0.5    3.8   3.81   1.26    0.00    0.02
 1992 250    39    36    2.0    0.0    2.0   0.00   3.82    1.7    1.5    0.5    3.8   3.82   1.25    0.00    0.03
 1992 251    40    37    2.3    0.0    2.3   0.00   3.73    2.1    1.7    0.5    3.7   3.73   1.23    0.00    0.03
 1992 252    41    38    2.5    0.0    2.5   0.00   3.67    2.3    2.0    0.5    3.7   3.67   1.09    0.00    0.04
 1992 253    42    39    2.9    0.0    2.9   0.00   3.67    2.8    2.4    0.5    3.7   3.67   1.16    0.00    0.04
 1992 254    43    40    3.2    0.0    3.2   0.00   3.62    3.3    2.7    0.5    3.6   3.62   1.18    0.00    0.05
 1992 255    44    41    3.7    0.0    3.7   0.00   3.59    3.7    3.2    0.5    3.6   3.59   1.12    0.00    0.05
 1992 256    45    42    4.2    0.0    4.2   0.00   3.68    4.7    3.7    0.5    3.7   3.68   1.25    0.00    0.06
 1992 257    46    43    4.7    0.0    4.7   0.00   3.84    5.2    4.2    0.5    3.8   3.84   1.19    0.00    0.07
 1992 258    47    44    5.0    0.0    5.0   0.00   3.78    5.9    4.5    0.5    3.8   3.78   1.24    0.00    0.08
 1992 259    48    45    5.4    0.0    5.4   0.00   3.67    6.7    4.9    0.5    3.7   3.67   1.24    0.00    0.09
 1992 260    49    46    5.9    0.0    5.9   0.00   3.57    7.3    5.4    0.5    3.6   3.57   1.15    0.00    0.10
 1992 261    50    47    6.6    0.0    6.6   0.00   3.41    8.3    6.2    0.5    3.4   3.41   1.16    0.00    0.11
 1992 262    51    48    7.8    0.0    7.8   0.00   3.75   10.2    7.3    0.5    3.7   3.75   1.27    0.00    0.13
 1992 263    52    49    8.3    0.0    8.3   0.00   3.74   11.3    7.7    0.5    3.7   3.74   1.25    0.00    0.15
 1992 264    53    50    8.8    0.0    8.8   0.00   3.56   12.2    8.3    0.5    3.6   3.56   1.21    0.00    0.17
 1992 265    54    51    9.6    0.0    9.6   0.00   3.38   13.6    9.2    0.5    3.4   3.38   1.19    0.00    0.19
 1992 266    55    52   11.2    0.0   11.2   0.00   3.81   14.9   10.7    0.5    3.8   3.81   1.11    0.00    0.22
 1992 267    56    53   11.5    0.0   11.5   0.00   3.70   16.0   11.0    0.5    3.7   3.70   1.18    0.00    0.24
 1992 268    57    54   12.1    0.0   12.1   0.00   3.75   16.3   11.6    0.5    3.7   3.75   1.11    0.00    0.27
 1992 269    58    55   12.6    0.0   12.6   0.00   3.84   18.2   12.0    0.5    3.8   3.84   1.31    0.00    0.30
 1992 270    59    56   12.7    0.0   12.7   0.00   4.13   19.2   12.2    0.6    4.1   4.13   1.36    0.00    0.33
 1992 271    60    57   12.7    0.0   12.7   0.00   3.87   19.2   12.2    0.5    3.9   3.87   1.24    0.00    0.33
 1992 272    61    58   12.7    0.0   12.7   0.00   3.58   19.2   12.2    0.5    3.6   3.58   1.14    0.00    0.33
 1992 273    62    59   14.7    0.0   14.7   0.00   3.78   22.0   14.2    0.5    3.8   3.78   1.16    0.00    0.37
 1992 274    63    60   16.1    0.0   16.1   0.00   3.68   24.0   15.6    0.5    3.7   3.68   1.15    0.00    0.41
 1992 275    64    61   17.5    0.0   17.5   0.00   3.57   25.2   17.0    0.5    3.6   3.57   1.10    0.00    0.46
 1992 276    65    62   19.0    0.0   19.0   0.00   3.54   27.1   18.5    0.5    3.5   3.54   1.10    0.00    0.50
 1992 277    66    63   20.4    0.0   20.4   0.00   3.51   29.5   19.9    0.6    3.5   3.51   1.14    0.00    0.55
 1992 278    67    64   22.3    0.0   22.3   0.00   3.48   32.0   21.7    0.6    3.5   3.48   1.14    0.00    0.60
 1992 279    68    65   23.6    0.0   23.6   0.00   3.45   32.9   23.0    0.7    3.5   3.45   1.08    0.00    0.65
 1992 280    69    66   24.6    0.0   24.6   0.00   3.47   36.3   23.9    0.7    3.5   3.47   1.22    0.00    0.71
 1992 281    70    67   25.2    0.0   25.2   0.00   3.47   37.6   24.5    0.7    3.5   3.47   1.21    0.00    0.77
 1992 282    71    68   25.9    0.0   25.9   0.00   3.43   39.2   25.1    0.8    3.4   3.43   1.19    0.00    0.84
 1992 283    72    69   27.0    0.0   27.0   0.00   3.40   41.3   26.1    0.9    3.4   3.40   1.16    0.00    0.91
 1992 284    73    70   29.2    0.0   29.2   0.00   3.37   44.5   28.1    1.1    3.4   3.37   1.15    0.00    0.99
 1992 285    74    71   31.8    0.0   31.8   0.00   3.34   47.1   30.5    1.3    3.3   3.34   1.11    0.00    1.07
 1992 286    75    72   34.6    0.0   34.6   0.00   3.31   51.3   32.9    1.7    3.3   3.31   1.14    0.00    1.15
 1992 287    76    73   37.0    0.0   37.0   0.00   3.28   55.4   35.0    2.0    3.3   3.28   1.15    0.00    1.24
 1992 288    77    74   40.6    0.0   40.6   0.00   3.25   59.9   37.9    2.6    3.2   3.25   1.13    0.00    1.34
 1992 289    78    75   43.2    0.0   43.2   0.00   3.20   61.3   40.0    3.2    3.2   3.20   1.07    0.00    1.44
 1992 290    79    76   46.2    0.0   46.2   0.00   3.17   64.5   42.3    3.9    3.2   3.17   1.07    0.00    1.54
 1992 291    80    77   48.9    0.0   48.9   0.00   3.15   69.8   44.3    4.6    3.1   3.15   1.14    0.00    1.63
 1992 292    81    78   50.9    0.0   50.9   0.00   3.13   73.9   45.7    5.2    3.1   3.13   1.15    0.00    1.74
 1992 293    82    79   53.3    0.0   53.3   0.00   3.11   75.0   47.4    5.9    3.1   3.11   1.08    0.00    1.86
 1992 294    83    80   55.4    0.0   55.4   0.00   3.09   80.1   48.9    6.5    3.1   3.09   1.14    0.00    1.98
 1992 295    84    81   57.4    0.0   57.4   0.00   3.07   84.1   50.2    7.2    3.1   3.07   1.15    0.00    2.11
 1992 296    85    82   60.1    0.0   60.1   0.00   3.05   88.2   52.0    8.1    3.0   3.05   1.13    0.00    2.24
 1992 297    86    83   64.3    0.0   64.3   0.00   3.02   93.4   54.6    9.7    3.0   3.02   1.12    0.00    2.39
 1992 298    87    84   69.8    0.0   69.8   0.00   2.98   99.6   57.9   11.9    3.0   2.98   1.11    0.00    2.54
 1992 299    88    85   73.3    0.0   73.3   0.00   2.94  102.0   59.8   13.5    2.9   2.94   1.07    0.00    2.69
 1992 300    89    86   79.2    0.0   79.2   0.00   2.90  110.2   62.9   16.2    2.9   2.90   1.11    0.00    2.84
 1992 301    90    87   84.1    0.0   84.1   0.00   2.82  116.0   65.0   19.1    2.8   2.82   1.10    0.00    3.00
 1992 302    91    88   87.2    0.0   87.2   0.00   2.87  119.2   67.1   20.2    2.9   2.87   1.09    0.00    3.17
 1992 303    92    89   88.5    0.0   88.5   0.00   2.82  122.8   67.3   21.2    2.8   2.82   1.10    0.00    3.33
 1992 304    93    90   90.1    0.0   90.1   0.00   2.76  125.7   67.8   22.4    2.8   2.76   1.08    0.00    3.51
 1992 305    94    91   91.6    0.0   91.6   0.00   2.69  128.0   67.9   23.7    2.7   2.69   1.06    0.00    3.69
 1992 306    95    92   93.0    0.0   93.0   0.00   2.58  130.0   67.6   25.4    2.6   2.58   1.03    0.00    3.87
 1992 307    96    93   94.3    0.0   94.3   0.00   2.42  131.6   66.7   27.6    2.4   2.42   1.01    0.00    4.06
 1992 308    97    94   95.5    0.0   95.5   0.00   2.24  132.9   68.0   27.5    2.2   2.24   1.02    0.00    4.25
 1992 309    98    95   96.4    0.0   96.4   0.00   2.20  134.0   68.5   27.9    2.2   2.20   1.00    0.00    4.45
 1992 310    99    96   97.3    0.0   97.3   0.00   2.17  135.1   68.9   28.4    2.2   2.17   0.98    0.00    4.64
 1992 311   100    97   98.0    0.0   98.0   0.00   2.11  136.0   68.8   29.2    2.1   2.11   0.95    0.00    4.83
 1992 312   101    98   98.6    0.0   98.6   0.00   2.04  136.8   68.4   30.2    2.0   2.04   0.92    0.00    5.03
 1992 313   102    99   99.0    0.0   99.0   0.00   1.96  137.3   67.6   31.4    2.0   1.96   0.90    0.00    5.22
 1992 314   103   100   99.5    0.0   99.5   0.00   1.87  137.9   66.4   33.1    1.9   1.87   0.88    0.00    5.41
 1992 315   104   101  100.0    0.0  100.0   0.00   1.83  138.5   65.9   34.0    1.8   1.83   0.89    0.00    5.61
 1992 316   105   102  100.5    0.0  100.5   0.00   1.74  139.1   64.6   35.9    1.7   1.74   0.88    0.00    5.81
 1992 317   106   103  101.0    0.0  101.0   0.00   1.67  139.7   63.4   37.6    1.7   1.67   0.86    0.00    6.00
 1992 318   107   104  101.5    0.0  101.5   0.00   1.61  140.4   62.4   39.1    1.6   1.61   0.84    0.00    6.20
 1992 319   108   105  102.5    0.0  102.5   0.00   1.56  141.6   61.7   40.9    1.6   1.56   0.85    0.00    6.40
 1992 320   109   106  103.5    0.0  103.5   0.00   1.52  142.8   61.1   42.4    1.5   1.52   0.84    0.00    6.60
 1992 321   110   107  104.3    0.0  104.3   0.00   1.50  143.8   60.9   43.4    1.5   1.50   0.81    0.00    6.79
 1992 322   111   108  105.3    0.0  105.3   0.00   1.49  145.1   61.0   44.4    1.5   1.49   0.79    0.00    6.99
 1992 323   112   109  106.2    0.0  106.2   0.00   1.48  146.2   60.9   45.4    1.5   1.48   0.77    0.00    7.20
 1992 324   113   110  107.0    0.0  107.0   0.00   1.45  147.3   60.4   46.6    1.5   1.45   0.75    0.00    7.40
 1992 325   114   111  107.8    0.0  107.8   0.00   1.42  148.2   59.9   47.9    1.4   1.42   0.75    0.00    7.60
 1992 326   115   112  108.6    0.0  108.6   0.00   1.40  149.2   59.7   48.8    1.4   1.40   0.76    0.00    7.81
 1992 327   116   113  109.3    0.0  109.3   0.00   1.39  150.1   59.7   49.6    1.4   1.39   0.74    0.00    8.01
 1992 328   117   114  109.9    0.0  109.9   0.00   1.39  151.0   59.7   50.3    1.4   1.39   0.73    0.00    8.22
 1992 329   118   115  110.6    0.0  110.6   0.00   1.36  151.8   59.4   51.2    1.4   1.36   0.72    0.00    8.43
 1992 330   119   116  111.1    0.0  111.1   0.00   1.34  152.6   59.0   52.2    1.3   1.34   0.71    0.00    8.63
 1992 331   120   117  111.7    0.0  111.7   0.00   1.32  153.3   58.6   53.1    1.3   1.32   0.71    0.00    8.84
 1992 332   121   118  112.2    0.0  112.2   0.00   1.43  154.0   63.2   49.0    1.4   1.43   0.70    0.00    9.05
 1992 333   122   119  112.7    0.0  112.7   0.00   1.44  154.7   62.8   49.9    1.4   1.44   0.69    0.00    9.26
 1992 334   123   120  113.1    0.0  113.1   0.00   1.44  155.3   62.1   51.0    1.4   1.44   0.69    0.00    9.48
 1992 335   124   121  113.6    0.0  113.6   0.00   1.44  156.0   61.4   52.2    1.4   1.44   0.69    0.00    9.69
 1992 336   125   122  114.0    0.0  114.0   0.00   1.45  156.7   60.8   53.2    1.4   1.45   0.68    0.00    9.90
 1992 337   126   123  114.7    0.0  114.7   0.00   1.46  157.7   60.4   54.3    1.5   1.46   0.67    0.00   10.12
 1992 338   127   124  115.3    0.0  115.3   0.00   1.47  158.7   59.9   55.4    1.5   1.47   0.66    0.00   10.33
 1992 339   128   125  115.9    0.0  115.9   0.00   1.48  159.8   59.2   56.6    1.5   1.48   0.66    0.00   10.55
 1992 340   129   126  116.4    0.0  116.4   0.00   1.48  160.7   58.5   57.9    1.5   1.48   0.66    0.00   10.77
 1992 341   130   127  117.0    0.0  117.0   0.00   1.49  161.7   57.6   59.3    1.5   1.49   0.66    0.00   10.99
 1992 342   131   128  117.3    0.0  117.3   0.00   1.49  162.4   56.8   60.6    1.5   1.49   0.66    0.00   11.22
 1992 343   132   129  117.9    0.0  117.9   0.00   1.50  163.4   55.9   62.0    1.5   1.50   0.66    0.00   11.44
 1992 344   133   130  118.4    0.0  118.4   0.00   1.51  164.5   55.0   63.4    1.5   1.51   0.66    0.00   11.67
 1992 345   134   131  118.9    4.0  114.8   1.44   1.46  165.4   53.3   61.5    1.5   1.46   0.67    0.00   11.90
 1992 346   135   132  119.4    7.5  111.9   1.42   1.43  166.3   52.0   59.9    1.4   1.43   0.68    0.00   12.13
 1992 347   136   133  119.8   10.7  109.1   1.41   1.39  167.2   50.7   58.4    1.4   1.39   0.68    0.00   12.37
 1992 348   137   134  120.3   14.5  105.8   1.40   1.35  168.1   49.1   56.7    1.3   1.35   0.68    0.00   12.61
 1992 349   138   135  120.8   18.1  102.7   1.38   1.31  168.9   47.7   55.0    1.3   1.31   0.68    0.00   12.85
 1992 350   139   136  121.3   20.8  100.5   1.38   1.28  169.8   46.7   53.8    1.3   1.28   0.68    0.00   13.09
 1992 351   140   137  121.7   24.0   97.7   1.37   1.25  170.6   45.4   52.3    1.2   1.25   0.69    0.00   13.33
 1992 352   141   138  122.2   27.6   94.5   1.36   1.21  171.4   43.9   50.6    1.2   1.21   0.70    0.00   13.57
 1992 353   142   139  122.5   31.2   91.4   1.34   1.17  172.0   42.4   48.9    1.2   1.17   0.70    0.00   13.82
 1992 354   143   140  123.1   34.6   88.5   1.33   1.13  173.0   41.1   47.4    1.1   1.13   0.71    0.00   14.06
 1992 355   144   141  123.5   38.1   85.5   1.32   1.09  173.8   39.7   45.8    1.1   1.09   0.71    0.00   14.31
 1992 356   145   142  124.1   41.4   82.7   1.31   1.05  174.6   38.4   44.3    1.1   1.05   0.71    0.00   14.56
 1992 357   146   143  124.6   44.7   79.9   1.30   1.03  175.5   37.6   42.3    1.0   1.03   0.72    0.00   14.81
 1992 358   147   144  125.0   47.9   77.1   1.29   1.01  176.2   36.8   40.3    1.0   1.01   0.73    0.00   15.07
 1992 359   148   145  125.5   51.1   74.5   1.28   0.97  177.1   35.2   39.2    1.0   0.97   0.73    0.00   15.32
 1992 360   149   146  125.9   53.9   72.0   1.27   0.93  177.7   33.9   38.1    0.9   0.93   0.74    0.00   15.58
 1992 361   150   147  126.5   56.4   70.1   1.26   0.89  178.6   32.6   37.5    0.9   0.89   0.74    0.00   15.84
 1992 362   151   148  126.9   58.8   68.1   1.25   0.87  179.3   31.7   36.5    0.9   0.87   0.74    0.00   16.10
 1992 363   152   149  127.4   61.6   65.8   1.24   0.84  180.1   30.6   35.2    0.8   0.84   0.75    0.00   16.36
 1992 364   153   150  127.9   64.4   63.5   1.22   0.83  180.9   30.1   33.4    0.8   0.83   0.75    0.00   16.62
 1992 365   154   151  128.4   66.8   61.5   1.21   0.82  181.6   29.7   31.8    0.8   0.82   0.76    0.00   16.88
 1992 366   155   152  128.7   68.9   59.8   1.20   0.81  182.2   29.3   30.5    0.8   0.81   0.77    0.00   17.14
 1993 001   156   153  128.9   71.1   57.8   1.19   0.79  182.5   28.8   29.0    0.8   0.79   0.77    0.00   17.41
 1993 002   157   154  129.2   73.3   55.8   1.18   0.78  183.0   28.3   27.5    0.8   0.78   0.78    0.00   17.67
 1993 003   158   155  129.4   75.6   53.8   1.17   0.76  183.3   27.8   26.0    0.8   0.76   0.78    0.00   17.94
 1993 004   159   156  129.6   78.2   51.4   1.16   0.74  183.6   27.0   24.4    0.7   0.74   0.79    0.00   18.21
 1993 005   160   157  129.9   80.7   49.2   1.15   0.71  184.2   25.9   23.3    0.7   0.71   0.80    0.00   18.47
 1993 006   161   158  130.5   83.2   47.3   1.14   0.68  185.1   24.9   22.4    0.7   0.68   0.80    0.00   18.74
 1993 007   162   159  130.9   85.6   45.3   1.13   0.67  185.8   24.4   20.9    0.7   0.67   0.81    0.00   19.01
 1993 008   163   160  131.3   87.9   43.5   1.12   0.65  186.4   23.7   19.8    0.7   0.65   0.82    0.00   19.28
 1993 009   164   161  131.7   89.9   41.8   1.11   0.62  186.8   22.7   19.0    0.6   0.62   0.82    0.00   19.55
 1993 010   165   162  132.3   92.0   40.3   1.10   0.60  187.8   22.0   18.3    0.6   0.60   0.83    0.00   19.83
 1993 011   166   163  132.9   94.1   38.9   1.09   0.58  188.7   21.3   17.6    0.6   0.58   0.84    0.00   20.10
 1993 012   167   164  133.9   96.1   37.8   1.07   0.57  189.8   20.9   16.9    0.6   0.57   0.85    0.00   20.37
 1993 013   168   165  134.5   97.1   37.4   1.07   0.58  190.8   21.0   16.5    0.6   0.58   0.86    0.00   20.65
 1993 014   169   166  135.2   97.8   37.3   1.06   0.57  191.8   20.9   16.4    0.6   0.57   0.86    0.00   20.93
 1993 015   170   167  135.2   97.8   37.3   1.06   0.57  192.8   20.9   16.4    0.6   0.57   0.86    0.00   20.93
 1993 016   171   168  135.2   97.8   37.3   1.06   0.57  193.8   20.9   16.4    0.6   0.57   0.86    0.00   20.93
 1993 017   172   169  135.2   97.8   37.3   1.06   0.57  194.8   20.9   16.4    0.6   0.57   0.86    0.00   20.93
 1993 018   173   170  135.2   97.8   37.3   1.06   0.57  195.8   20.9   16.4    0.6   0.57   0.86    0.00   20.93
