*GROWTH ASPECTS OUTPUT FILE

*DSSAT Cropping System Model Ver. 4.0.2.000               Aug 02, 2016; 15:29:24

*RUN   1        : UYMZ                    
 MODEL          : MZCER040 - Maize           
 EXPERIMENT     : UYMZ0107 MZ    late to create DSS                             
 TREATMENT  1   : UYMZ                    

@YEAR DOY   DAS   DAP   L#SD   GSTD   LAID   LWAD   SWAD   GWAD   RWAD   CWAD   G#AD   GWGD   HIAD   PWAD   P#AD   WSPD   WSGD   NSTD   EWSD   LN%D   SH%D   HIPD   PWDD   PWTD     SLAD   CHTD   CWID   RDPD   RL1D   RL2D   RL3D   RL4D   RL5D   RL6D   RL7D   RL8D   RL9D   RL10   CDAD   LDAD   SDAD   SNW0C   SNW1C
 1990 214     3     0    0.0      0   0.00      0      0      0      0      0      0    0.0  0.000      0      0  0.000  0.000  0.000  0.000   0.00   0.00   0.00      0      0      0.0   0.00   0.00   0.03   0.00   0.00   0.00   0.00   0.00   0.00   0.00   0.00   0.00   0.00      0      0      0       0       0
 1990 215     4     1    0.0      0   0.00      0      0      0      0      0      0    0.0  0.000      0      0  0.000  0.000  0.000  0.000   0.00   0.00   0.00      0      0      0.0   0.00   0.00   0.03   0.00   0.00   0.00   0.00   0.00   0.00   0.00   0.00   0.00   0.00      0      0      0       0       0
 1990 216     5     2    0.0      0   0.00      0      0      0      0      0      0    0.0  0.000      0      0  0.000  0.000  0.000  0.000   0.00   0.00   0.00      0      0      0.0   0.00   0.00   0.04   0.00   0.00   0.00   0.00   0.00   0.00   0.00   0.00   0.00   0.00      0      0      0       0       0
 1990 217     6     3    0.0      0   0.00      0      0      0      0      0      0    0.0  0.000      0      0  0.000  0.000  0.000  0.000   0.00   0.00   0.00      0      0      0.0   0.00   0.00   0.06   0.00   0.00   0.00   0.00   0.00   0.00   0.00   0.00   0.00   0.00      0      0      0       0       0
 1990 218     7     4    0.0      0   0.00      0      0      0      0      0      0    0.0  0.000      0      0  0.000  0.000  0.000  0.000   0.00   0.00   0.00      0      0      0.0   0.00   0.00   0.08   0.00   0.00   0.00   0.00   0.00   0.00   0.00   0.00   0.00   0.00      0      0      0       0       0
 1990 219     8     5    0.0      0   0.00      0      0      0      0      0      0    0.0  0.000      0      0  0.000  0.000  0.000  0.000   0.00   0.00   0.00      0      0      0.0   0.00   0.00   0.10   0.00   0.00   0.00   0.00   0.00   0.00   0.00   0.00   0.00   0.00      0      0      0       0       0
 1990 220     9     6    0.0      0   0.00      0      0      0      0      0      0    0.0  0.000      0      0  0.000  0.000  0.000  0.000   0.00   0.00   0.00      0      0      0.0   0.00   0.00   0.11   0.00   0.00   0.00   0.00   0.00   0.00   0.00   0.00   0.00   0.00      0      0      0       0       0
 1990 221    10     7    1.0      1   0.00     14     14      0     14     28      0    0.0  0.000      0      0  0.000  0.000  0.012  0.000   4.40   0.00   0.00      0      0     15.6   0.00   0.00   0.12   0.28   0.09   0.00   0.00   0.00   0.00   0.00   0.00   0.00   0.00      0      0      0       0       0
 1990 222    11     8    2.0      1   0.00     14     14      0     14     28      0    0.0  0.000      0      0  0.000  0.000  0.018  0.000   4.55   0.00   0.00      0      0     28.2   0.00   0.00   0.13   0.28   0.09   0.00   0.00   0.00   0.00   0.00   0.00   0.00   0.00      0      0      0       0       0
 1990 223    12     9    2.0      1   0.01     14     14      0     15     28      0    0.0  0.000      0      0  0.000  0.000  0.000  0.000   4.55   0.00   0.00      0      0     51.3   0.00   0.00   0.14   0.29   0.10   0.00   0.00   0.00   0.00   0.00   0.00   0.00   0.00      0      0      0       0       0
 1990 224    13    10    3.0      1   0.01     14     14      0     16     28      0    0.0  0.000      0      0  0.000  0.000  0.000  0.000   4.48   0.00   0.00      0      0     77.9   0.00   0.00   0.16   0.29   0.11   0.00   0.00   0.00   0.00   0.00   0.00   0.00   0.00      0      0      0       0       0
 1990 225    14    11    3.0      1   0.02     14     14      0     17     28      0    0.0  0.000      0      0  0.000  0.000  0.000  0.000   4.45   0.00   0.00      0      0    107.2   0.00   0.00   0.17   0.31   0.13   0.00   0.00   0.00   0.00   0.00   0.00   0.00   0.00      0      0      0       0       0
 1990 226    15    12    3.0      1   0.02     14     14      0     18     28      0    0.0  0.000      0      0  0.000  0.000  0.000  0.000   4.45   0.00   0.00      0      0    136.7   0.00   0.00   0.18   0.31   0.14   0.00   0.00   0.00   0.00   0.00   0.00   0.00   0.00      0      0      0       0       0
 1990 227    16    13    3.0      1   0.02     14     14      0     19     28      0    0.0  0.000      0      0  0.000  0.000  0.000  0.000   4.40   0.00   0.00      0      0    149.2   0.00   0.00   0.19   0.32   0.15   0.01   0.00   0.00   0.00   0.00   0.00   0.00   0.00      0      0      0       0       0
 1990 228    17    14    4.0      1   0.03     14     14      0     21     28      0    0.0  0.000      0      0  0.000  0.000  0.000  0.000   4.39   0.00   0.00      0      0    197.8   0.00   0.00   0.19   0.33   0.17   0.01   0.00   0.00   0.00   0.00   0.00   0.00   0.00      0      0      0       0       0
 1990 229    18    15    4.0      1   0.04     14     14      0     25     28      0    0.0  0.000      0      0  0.000  0.000  0.000  0.000   4.37   0.00   0.00      0      0    260.8   0.00   0.00   0.20   0.36   0.22   0.03   0.00   0.00   0.00   0.00   0.00   0.00   0.00      0      0      0       0       0
 1990 230    19    16    4.0      1   0.04     14     14      0     30     28      0    0.0  0.000      0      0  0.000  0.000  0.000  0.000   4.35   0.00   0.00      0      0    317.9   0.00   0.00   0.21   0.39   0.27   0.05   0.00   0.00   0.00   0.00   0.00   0.00   0.00      0      0      0       0       1
 1990 231    20    17    4.0      1   0.06     17     14      0     34     31      0    0.0  0.000      0      0  0.000  0.000  0.000  0.000   3.96   0.00   0.00      0      0    331.6   0.00   0.00   0.22   0.41   0.30   0.07   0.00   0.00   0.00   0.00   0.00   0.00   0.00      0      0      0       0       1
 1990 232    21    18    5.0      1   0.07     21     14      0     40     35      0    0.0  0.000      0      0  0.000  0.000  0.000  0.000   3.73   0.00   0.00      0      0    315.0   0.00   0.00   0.22   0.45   0.36   0.09   0.00   0.00   0.00   0.00   0.00   0.00   0.00      0      0      0       0       1
 1990 233    22    19    5.0      1   0.08     26     14      0     46     40      0    0.0  0.000      0      0  0.000  0.000  0.000  0.000   3.85   0.00   0.00      0      0    303.9   0.00   0.00   0.23   0.49   0.41   0.13   0.00   0.00   0.00   0.00   0.00   0.00   0.00      0      0      0       0       1
 1990 234    23    20    5.0      1   0.09     29     14      0     52     43      0    0.0  0.000      0      0  0.000  0.000  0.000  0.000   3.89   0.00   0.00      0      0    295.2   0.00   0.00   0.24   0.52   0.46   0.16   0.00   0.00   0.00   0.00   0.00   0.00   0.00      0      0      0       0       1
 1990 235    24    21    5.0      1   0.09     31     14      0     59     45      0    0.0  0.000      0      0  0.000  0.000  0.000  0.000   4.09   0.00   0.00      0      0    284.2   0.00   0.00   0.24   0.56   0.52   0.20   0.00   0.00   0.00   0.00   0.00   0.00   0.00      0      0      0       0       2
 1990 236    25    22    5.0      1   0.09     34     14      0     64     48      0    0.0  0.000      0      0  0.000  0.000  0.000  0.000   4.04   0.00   0.00      0      0    265.6   0.00   0.00   0.24   0.60   0.56   0.23   0.00   0.00   0.00   0.00   0.00   0.00   0.00      0      0      0       0       2
 1990 237    26    23    5.0      1   0.11     42     14      0     70     56      0    0.0  0.000      0      0  0.000  0.000  0.000  0.000   3.63   0.00   0.00      0      0    258.3   0.00   0.00   0.25   0.63   0.61   0.26   0.00   0.00   0.00   0.00   0.00   0.00   0.00      0      0      0       0       2
 1990 238    27    24    6.0      1   0.13     53     14      0     80     67      0    0.0  0.000      0      0  0.000  0.000  0.000  0.000   3.54   0.00   0.00      0      0    250.1   0.00   0.00   0.26   0.68   0.68   0.32   0.00   0.00   0.00   0.00   0.00   0.00   0.00      0      0      0       0       3
 1990 239    28    25    6.0      1   0.14     56     14      0     83     70      0    0.0  0.000      0      0  0.000  0.000  0.000  0.000   3.99   0.00   0.00      0      0    247.0   0.00   0.00   0.27   0.65   0.66   0.32   0.00   0.00   0.00   0.00   0.00   0.00   0.00      0      0      0       0       3
 1990 240    29    26    6.0      1   0.12     56     14      0     86     70      0    0.0  0.000      0      0  0.000  0.000  0.000  0.000   4.20   0.00   0.00      0      0    207.4   0.00   0.00   0.27   0.62   0.65   0.33   0.00   0.00   0.00   0.00   0.00   0.00   0.00      0      0      0       0       3
 1990 241    30    27    6.0      1   0.06     58     14      0     93     72      0    0.0  0.000      0      0  0.000  0.000  0.000  0.153   4.13   0.00   0.00      0      0     99.9   0.00   0.00   0.27   0.61   0.67   0.36   0.00   0.00   0.00   0.00   0.00   0.00   0.00      0      0      0       0       3
 1990 242    31    28    6.0      1   0.06     63     14      0     98     77      0    0.0  0.000      0      0  0.000  0.000  0.000  0.066   3.83   0.00   0.00      0      0     98.8   0.00   0.00   0.27   0.62   0.69   0.39   0.00   0.00   0.00   0.00   0.00   0.00   0.00      0      0      0       0       3
 1990 243    32    29    6.0      1   0.06     64     14      0     98     78      0    0.0  0.000      0      0  0.000  0.000  0.008  0.032   4.14   0.00   0.00      0      0     99.9   0.00   0.00   0.28   0.61   0.69   0.39   0.00   0.00   0.00   0.00   0.00   0.00   0.00      0      0      0       0       4
 1990 244    33    30    6.0      1   0.05     64     14      0     98     78      0    0.0  0.000      0      0  0.000  0.000  0.000  0.000   4.19   0.00   0.00      0      0     72.9   0.00   0.00   0.28   0.61   0.69   0.39   0.00   0.00   0.00   0.00   0.00   0.00   0.00      0      0      0       0       4
 1990 245    34    31    6.0      1   0.01     64     14      0     99     78      0    0.0  0.000      0      0  0.000  0.000  0.000  0.000   4.17   0.00   0.00      0      0     22.9   0.00   0.00   0.28   0.61   0.69   0.40   0.00   0.00   0.00   0.00   0.00   0.00   0.00      0      0      0       0       5
 1990 246    35    32    6.0      1   0.02     68     14      0     99     82      0    0.0  0.000      0      0  0.000  0.000  0.000  0.000   4.00   0.00   0.00      0      0     27.8   0.00   0.00   0.28   0.61   0.69   0.40   0.00   0.00   0.00   0.00   0.00   0.00   0.00      0      0      0       0       5
 1990 247    36    33    6.0      1   0.03     72     14      0     98     86      0    0.0  0.000      0      0  0.000  0.000  0.000  0.000   3.96   0.00   0.00      0      0     38.5   0.00   0.00   0.28   0.60   0.69   0.40   0.00   0.00   0.00   0.00   0.00   0.00   0.00      0      0      0       0       5
 1990 248    37    34    6.0      1   0.05     82     14      0     98     96      0    0.0  0.000      0      0  0.000  0.000  0.000  0.000   3.71   0.00   0.00      0      0     58.0   0.00   0.00   0.29   0.60   0.69   0.40   0.00   0.00   0.00   0.00   0.00   0.00   0.00      0      0      0       0       6
 1990 249    38    35    6.0      1   0.07     84     14      0     98     98      0    0.0  0.000      0      0  0.000  0.000  0.000  0.000   4.03   0.00   0.00      0      0     78.5   0.00   0.00   0.30   0.60   0.69   0.40   0.00   0.00   0.00   0.00   0.00   0.00   0.00      0      0      0       0       6
 1990 250    39    36    7.0      1   0.07     88     14      0     98    102      0    0.0  0.000      0      0  0.000  0.000  0.000  0.000   3.97   0.00   0.00      0      0     83.9   0.00   0.00   0.30   0.60   0.69   0.40   0.00   0.00   0.00   0.00   0.00   0.00   0.00      0      0      0       0       7
 1990 251    40    37    7.0      1   0.08     91     14      0     99    105      0    0.0  0.000      0      0  0.000  0.000  0.000  0.000   3.99   0.00   0.00      0      0     88.2   0.00   0.00   0.31   0.57   0.65   0.38   0.00   0.00   0.00   0.00   0.00   0.00   0.00      0      0      0       0       7
 1990 252    41    38    7.0      1   0.10    111     14      0    102    125      0    0.0  0.000      0      0  0.000  0.000  0.000  0.168   3.44   0.00   0.00      0      0     92.4   0.00   0.00   0.31   0.56   0.65   0.40   0.00   0.00   0.00   0.00   0.00   0.00   0.00      0      0      0       0       8
 1990 253    42    39    7.0      1   0.16    130     14      0    105    144      0    0.0  0.000      0      0  0.000  0.000  0.000  0.111   3.52   0.00   0.00      0      0    120.6   0.00   0.00   0.32   0.55   0.66   0.42   0.00   0.00   0.00   0.00   0.00   0.00   0.00      0      0      0       0       8
 1990 254    43    40    8.0      1   0.19    148     14      0    107    162      0    0.0  0.000      0      0  0.000  0.000  0.000  0.228   3.59   0.00   0.00      0      0    128.7   0.00   0.00   0.33   0.52   0.64   0.41   0.00   0.00   0.00   0.00   0.00   0.00   0.00      0      0      0       0       9
 1990 255    44    41    8.0      1   0.20    165     14      0    112    179      0    0.0  0.000      0      0  0.000  0.000  0.000  0.158   3.66   0.00   0.00      0      0    118.8   0.00   0.00   0.33   0.51   0.64   0.44   0.01   0.00   0.00   0.00   0.00   0.00   0.00      0      0      0       0       9
 1990 256    45    42    8.0      1   0.18    167     14      0    120    181      0    0.0  0.000      0      0  0.000  0.000  0.000  0.101   3.99   0.00   0.00      0      0    106.4   0.00   0.00   0.34   0.51   0.68   0.50   0.01   0.00   0.00   0.00   0.00   0.00   0.00      0      0      0       0      10
 1990 257    46    43    8.0      1   0.13    170     14      0    130    184      0    0.0  0.000      0      0  0.000  0.000  0.000  0.039   3.95   0.00   0.00      0      0     75.1   0.00   0.00   0.34   0.52   0.73   0.58   0.02   0.00   0.00   0.00   0.00   0.00   0.00      0      0      0       0      11
 1990 258    47    44    8.0      1   0.13    179     14      0    144    193      0    0.0  0.000      0      0  0.000  0.000  0.000  0.000   3.82   0.00   0.00      0      0     74.5   0.00   0.00   0.34   0.55   0.80   0.68   0.03   0.00   0.00   0.00   0.00   0.00   0.00      0      0      0       0      11
 1990 259    48    45    8.0      1   0.16    197     14      0    154    211      0    0.0  0.000      0      0  0.000  0.000  0.000  0.000   3.66   0.00   0.00      0      0     82.8   0.00   0.00   0.35   0.57   0.85   0.76   0.05   0.00   0.00   0.00   0.00   0.00   0.00      0      0      0       0      12
 1990 260    49    46    8.0      1   0.19    213     14      0    158    227      0    0.0  0.000      0      0  0.000  0.000  0.000  0.000   3.71   0.00   0.00      0      0     88.7   0.00   0.00   0.36   0.57   0.87   0.79   0.05   0.00   0.00   0.00   0.00   0.00   0.00      0      0      0       0      13
 1990 261    50    47    8.0      1   0.22    230     14      0    162    244      0    0.0  0.000      0      0  0.000  0.000  0.000  0.000   3.69   0.00   0.00      0      0     94.0   0.00   0.00   0.37   0.54   0.84   0.78   0.05   0.00   0.00   0.00   0.00   0.00   0.00      0      0      0       0      13
 1990 262    51    48    8.0      1   0.24    247     14      0    174    261      0    0.0  0.000      0      0  0.000  0.000  0.000  0.000   3.70   0.00   0.00      0      0     98.4   0.00   0.00   0.38   0.54   0.87   0.86   0.07   0.00   0.00   0.00   0.00   0.00   0.00      0      0      0       0      14
 1990 263    52    49    9.0      1   0.30    264     14      0    177    278      0    0.0  0.000      0      0  0.000  0.000  0.000  0.134   3.70   0.00   0.00      0      0    115.2   0.00   0.00   0.39   0.53   0.87   0.86   0.08   0.00   0.00   0.00   0.00   0.00   0.00      0      0      0       0      15
 1990 264    53    50    9.0      1   0.34    285     14      0    180    299      0    0.0  0.000      0      0  0.000  0.000  0.000  0.067   3.65   0.00   0.00      0      0    118.8   0.00   0.00   0.40   0.53   0.87   0.88   0.09   0.00   0.00   0.00   0.00   0.00   0.00      0      0      0       0      16
 1990 265    54    51    9.0      1   0.37    331     14      0    206    345      0    0.0  0.000      0      0  0.000  0.000  0.000  0.003   3.37   0.00   0.00      0      0    111.9   0.00   0.00   0.41   0.56   0.99   1.08   0.15   0.00   0.00   0.00   0.00   0.00   0.00      0      0      0       0      17
 1990 266    55    52    9.0      1   0.38    338     14      0    227    352      0    0.0  0.000      0      0  0.000  0.000  0.000  0.000   3.82   0.00   0.00      0      0    112.3   0.00   0.00   0.41   0.59   1.08   1.23   0.20   0.00   0.00   0.00   0.00   0.00   0.00      0      0      0       0      18
 1990 267    56    53    9.0      2   0.36    321     14      0    271    335      0    0.0  0.000      0      0  0.000  0.000  0.000  0.000   4.10   0.00   0.00      0      0    113.4   0.00   0.00   0.42   0.65   1.26   1.55   0.31   0.00   0.00   0.00   0.00   0.00   0.00      0      0      0       0      19
 1990 268    57    54    9.0      2   0.35    332     14      0    305    346      0    0.0  0.000      0      0  0.000  0.000  0.001  0.000   3.96   0.00   0.00      0      0    105.3   0.00   0.00   0.42   0.70   1.40   1.80   0.40   0.00   0.00   0.00   0.00   0.00   0.00      0      0      0       0      19
 1990 269    58    55    9.0      2   0.39    357     14      0    353    371      0    0.0  0.000      0      0  0.000  0.000  0.000  0.000   3.69   0.00   0.00      0      0    108.0   0.00   0.00   0.43   0.79   1.60   2.14   0.53   0.00   0.00   0.00   0.00   0.00   0.00      0      0      0       0      19
 1990 270    59    56   10.0      2   0.45    399     14      0    392    413      0    0.0  0.000      0      0  0.000  0.000  0.000  0.000   3.78   0.00   0.00      0      0    112.8   0.00   0.00   0.44   0.86   1.75   2.41   0.64   0.00   0.00   0.00   0.00   0.00   0.00      0      0      0       0      21
 1990 271    60    57   10.0      3   0.50    438     14      0    393    452      0    0.0  0.000      0      0  0.000  0.000  0.022  0.000   3.68   0.00   0.00      0      0    114.5   0.00   0.00   0.45   0.86   1.75   2.42   0.65   0.00   0.00   0.00   0.00   0.00   0.00      0      0      0       0      23
 1990 272    61    58   10.0      3   0.56    481     14      0    439    495      0    0.0  0.000      0      0  0.000  0.000  0.022  0.000   3.57   0.00   0.00      0      0    117.0   0.00   0.00   0.47   0.94   1.92   2.71   0.78   0.01   0.00   0.00   0.00   0.00   0.00      0      0      0       0      25
 1990 273    62    59   10.0      3   0.63    532     15      0    487    546      0    0.0  0.000      0      0  0.000  0.000  0.022  0.000   3.54   0.00   0.00      0      0    119.3   0.00   0.00   0.48   1.03   2.10   3.02   0.92   0.04   0.00   0.00   0.00   0.00   0.00      0      0      0       0      27
 1990 274    63    60   11.0      3   0.74    606     16      0    541    622      0    0.0  0.000      0      0  0.000  0.000  0.022  0.000   3.50   0.00   0.00      0      0    121.5   0.00   0.00   0.50   1.13   2.29   3.36   1.08   0.08   0.00   0.00   0.00   0.00   0.00      0      0      0       0      29
 1990 275    64    61   11.0      3   0.81    662     18      0    626    680      0    0.0  0.000      0      0  0.000  0.000  0.022  0.000   3.46   0.00   0.00      0      0    122.6   0.00   0.00   0.51   1.28   2.58   3.88   1.32   0.16   0.00   0.00   0.00   0.00   0.00      0      0      0       0      32
 1990 276    65    62   11.0      3   0.91    735     22      0    697    757      0    0.0  0.000      0      0  0.000  0.000  0.022  0.000   3.43   0.00   0.00      0      0    123.4   0.00   0.00   0.52   1.41   2.82   4.00   1.53   0.25   0.00   0.00   0.00   0.00   0.00      0      0      0       0      35
 1990 277    66    63   12.0      3   1.06    855     31      0    728    887      0    0.0  0.000      0      0  0.000  0.000  0.022  0.000   3.38   0.00   0.00      0      0    124.2   0.00   0.00   0.54   1.47   2.92   4.00   1.62   0.31   0.00   0.00   0.00   0.00   0.00      0      0      0       0      39
 1990 278    67    64   12.0      3   1.15    927     38      0    729    965      0    0.0  0.000      0      0  0.000  0.000  0.022  0.000   3.34   0.00   0.00      0      0    124.2   0.00   0.00   0.56   1.47   2.92   4.00   1.63   0.31   0.00   0.00   0.00   0.00   0.00      0      0      0       0      42
 1990 279    68    65   12.0      3   1.27   1021     50      0    732   1072      0    0.0  0.000      0      0  0.000  0.000  0.022  0.000   3.31   0.00   0.00      0      0    124.1   0.00   0.00   0.57   1.46   2.93   4.00   1.64   0.33   0.00   0.00   0.00   0.00   0.00      0      0      0       0      46
 1990 280    69    66   13.0      3   1.36   1098     62      0    734   1160      0    0.0  0.000      0      0  0.000  0.000  0.022  0.000   3.27   0.00   0.00      0      0    123.7   0.00   0.00   0.59   1.46   2.93   4.00   1.64   0.34   0.00   0.00   0.00   0.00   0.00      0      0      0       0      50
 1990 281    70    67   13.0      3   1.44   1167     75      0    770   1242      0    0.0  0.000      0      0  0.000  0.000  0.022  0.121   3.24   0.00   0.00      0      0    123.3   0.00   0.00   0.60   1.37   2.83   3.95   1.66   0.43   0.00   0.00   0.00   0.00   0.00      0      0      0       0      53
 1990 282    71    68   13.0      3   1.51   1232     89      0    898   1321      0    0.0  0.000      0      0  0.000  0.000  0.022  0.056   3.22   0.00   0.00      0      0    122.9   0.00   0.00   0.61   1.33   2.98   4.00   1.99   0.82   0.00   0.00   0.00   0.00   0.00      0      0      0       0      57
 1990 283    72    69   13.0      3   1.60   1306    106      0   1005   1412      0    0.0  0.000      0      0  0.000  0.000  0.022  0.021   3.20   0.00   0.00      0      0    122.3   0.00   0.00   0.62   1.30   3.09   4.00   2.29   1.15   0.01   0.00   0.00   0.00   0.00      0      0      0       0      62
 1990 284    73    70   14.0      3   1.70   1393    130      0   1013   1523      0    0.0  0.000      0      0  0.000  0.000  0.022  0.012   3.17   0.00   0.00      0      0    121.8   0.00   0.00   0.63   1.27   3.04   3.97   2.28   1.16   0.01   0.00   0.00   0.00   0.00      0      0      0       0      67
 1990 285    74    71   14.0      3   1.76   1455    149      0   1168   1604      0    0.0  0.000      0      0  0.000  0.000  0.022  0.067   3.14   0.00   0.00      0      0    121.2   0.00   0.00   0.64   1.20   3.01   4.00   2.64   1.66   0.06   0.00   0.00   0.00   0.00      0      0      0       0      72
 1990 286    75    72   14.0      3   1.83   1513    168      0   1334   1680      0    0.0  0.000      0      0  0.000  0.000  0.022  0.051   3.12   0.00   0.00      0      0    120.7   0.00   0.00   0.64   1.18   3.02   4.00   3.12   2.27   0.14   0.00   0.00   0.00   0.00      0      0      0       0      78
 1990 287    76    73   14.0      3   1.91   1592    196      0   1475   1788      0    0.0  0.000      0      0  0.000  0.000  0.022  0.029   3.10   0.00   0.00      0      0    120.1   0.00   0.00   0.65   1.17   3.03   4.00   3.56   2.84   0.23   0.00   0.00   0.00   0.00      0      0      0       0      84
 1990 288    77    74   14.0      3   1.97   1649    219      0   1639   1868      0    0.0  0.000      0      0  0.000  0.000  0.022  0.006   3.08   0.00   0.00      0      0    119.5   0.00   0.00   0.66   1.18   3.04   4.00   4.00   3.56   0.36   0.00   0.00   0.00   0.00      0      0      0       0      92
 1990 289    78    75   14.0      3   2.00   1696    238      0   1819   1935      0    0.0  0.000      0      0  0.000  0.000  0.022  0.006   3.06   0.00   0.00      0      0    118.2   0.00   0.00   0.67   1.21   3.03   4.00   4.00   4.00   0.53   0.00   0.00   0.00   0.00      0      0      0       0     100
 1990 290    79    76   15.0      3   2.07   1760    267      0   1891   2027      0    0.0  0.000      0      0  0.000  0.000  0.022  0.007   3.04   0.00   0.00      0      0    117.6   0.00   0.00   0.68   1.21   3.01   4.00   4.00   4.00   0.61   0.00   0.00   0.00   0.00      0      0      0       0     109
 1990 291    80    77   15.0      3   2.18   1862    318      0   2014   2181      0    0.0  0.000      0      0  0.000  0.000  0.022  0.007   3.01   0.00   0.00      0      0    117.0   0.00   0.00   0.69   1.23   3.01   4.00   4.00   4.00   0.78   0.00   0.00   0.00   0.00      0      0      0       0     118
 1990 292    81    78   15.0      3   2.29   1969    378      0   2072   2346      0    0.0  0.000      0      0  0.000  0.000  0.022  0.006   2.98   0.00   0.00      0      0    116.3   0.00   0.00   0.70   1.24   2.99   3.98   4.00   4.00   0.88   0.00   0.00   0.00   0.00      0      0      0       0     128
 1990 293    82    79   16.0      3   2.40   2076    445      0   2119   2521      0    0.0  0.000      0      0  0.000  0.000  0.022  0.004   2.94   0.00   0.00      0      0    115.6   0.00   0.00   0.71   1.25   2.99   3.96   4.00   4.00   0.97   0.00   0.00   0.00   0.00      0      0      0       0     139
 1990 294    83    80   16.0      3   2.51   2180    516      0   2220   2695      0    0.0  0.000      0      0  0.000  0.000  0.022  0.000   2.89   0.00   0.00      0      0    114.9   0.00   0.00   0.73   1.29   3.02   3.99   4.00   4.00   1.20   0.00   0.00   0.00   0.00      0      0      0       0     149
 1990 295    84    81   16.0      3   2.61   2283    593      0   2365   2876      0    0.0  0.000      0      0  0.000  0.000  0.022  0.000   2.81   0.00   0.00      0      0    114.3   0.00   0.00   0.74   1.37   3.09   4.00   4.00   4.00   1.55   0.00   0.00   0.00   0.00      0      0      0       0     161
 1990 296    85    82   16.0      3   2.71   2390    681      0   2449   3072      0    0.0  0.000      0      0  0.000  0.000  0.022  0.000   2.72   0.00   0.00      0      0    113.6   0.00   0.00   0.75   1.42   3.13   4.00   4.00   4.00   1.79   0.00   0.00   0.00   0.00      0      0      0       0     172
 1990 297    86    83   17.0      3   2.81   2486    766      0   2539   3252      0    0.0  0.000      0      0  0.000  0.000  0.022  0.000   2.65   0.00   0.00      0      0    112.9   0.00   0.00   0.76   1.50   3.20   4.00   4.00   4.00   2.07   0.00   0.00   0.00   0.00      0      0      0       0     185
 1990 298    87    84   17.0      3   2.90   2585    860      0   2563   3445      0    0.0  0.000      0      0  0.000  0.000  0.022  0.000   2.56   0.00   0.00      0      0    112.3   0.00   0.00   0.78   1.53   3.23   4.00   4.00   4.00   2.18   0.00   0.00   0.00   0.00      0      0      0       0     197
 1990 299    88    85   17.0      3   3.03   2717    999      0   2651   3716      0    0.0  0.000      0      0  0.000  0.000  0.024  0.000   2.42   0.00   0.00      0      0    111.5   0.00   0.00   0.79   1.67   3.36   4.00   4.00   4.00   2.51   0.00   0.00   0.00   0.00      0      0      0       0     210
 1990 300    89    86   18.0      3   3.23   2923   1127      0   2656   4050      0    0.0  0.000      0      0  0.000  0.000  0.026  0.000   2.26   0.00   0.00      0      0    110.5   0.00   0.00   0.81   1.70   3.37   4.00   3.99   4.00   2.56   0.00   0.00   0.00   0.00      0      0      0       0     223
 1990 301    90    87   18.0      3   3.29   2994   1206      0   2651   4200      0    0.0  0.000      0      0  0.000  0.000  0.032  0.000   2.22   0.00   0.00      0      0    109.8   0.00   0.00   0.82   1.71   3.37   4.00   3.98   3.99   2.57   0.00   0.00   0.00   0.00      0      0      0       0     237
 1990 302    91    88   18.0      3   3.35   3077   1331      0   2650   4408      0    0.0  0.000      0      0  0.000  0.000  0.040  0.000   2.14   0.00   0.00      0      0    109.0   0.00   0.00   0.84   1.73   3.39   4.00   3.97   3.98   2.59   0.00   0.00   0.00   0.00      0      0      0       0     250
 1990 303    92    89   19.0      3   3.47   3206   1561      0   2707   4767      0    0.0  0.000      0      0  0.000  0.000  0.041  0.000   2.00   0.00   0.00      0      0    108.1   0.00   0.00   0.86   1.95   3.60   4.00   4.00   4.00   2.71   0.00   0.00   0.00   0.00      0      0      0       0     263
 1990 304    93    90   19.0      3   3.53   3293   1732      0   2817   5024      0    0.0  0.000      0      0  0.000  0.000  0.045  0.000   1.92   0.00   0.00      0      0    107.2   0.00   0.00   0.87   2.42   4.00   4.00   4.00   4.00   2.84   0.00   0.00   0.00   0.00      0      0      0       0     277
 1990 305    94    91   19.0      3   3.59   3376   1910      0   2890   5286      0    0.0  0.000      0      0  0.000  0.000  0.055  0.000   1.84   0.00   0.00      0      0    106.3   0.00   0.00   0.88   2.73   4.00   4.00   4.00   4.00   2.92   0.00   0.00   0.00   0.00      0      0      0       0     291
 1990 306    95    92   20.0      3   3.64   3453   2089      0   2936   5543      0    0.0  0.000      0      0  0.000  0.000  0.062  0.000   1.77   0.00   0.00      0      0    105.3   0.00   0.00   0.90   2.95   4.00   4.00   4.00   4.00   2.98   0.00   0.00   0.00   0.00      0      0      0       0     305
 1990 307    96    93   20.0      3   3.66   3510   2231      0   2932   5741      0    0.0  0.000      0      0  0.000  0.000  0.067  0.000   1.72   0.00   0.00      0      0    104.3   0.00   0.00   0.92   2.98   4.00   4.00   4.00   4.00   2.98   0.00   0.00   0.00   0.00      0      0      0       0     320
 1990 308    97    94   20.0      3   3.67   3554   2347      0   3032   5901      0    0.0  0.000      0      0  0.000  0.000  0.074  0.000   1.68   0.00   0.00      0      0    103.2   0.00   0.00   0.93   3.27   4.00   4.00   4.00   4.00   3.06   0.36   0.00   0.00   0.00      0      0      0       0     335
 1990 309    98    95   20.0      3   3.66   3578   2413      0   3238   5992      0    0.0  0.000      0      0  0.000  0.000  0.080  0.000   1.68   0.00   0.00      0      0    102.2   0.00   0.00   0.93   3.82   4.00   4.00   4.00   4.00   3.22   1.14   0.00   0.00   0.00      0      0      0       0     350
 1990 310    99    96   21.0      3   3.65   3614   2513      0   3314   6128      0    0.0  0.000      0      0  0.000  0.000  0.081  0.007   1.66   0.00   0.00      0      0    101.1   0.00   0.00   0.94   4.00   4.00   4.00   4.00   4.00   3.28   1.49   0.00   0.00   0.00      0      0      0       0     366
 1990 311   100    97   21.0      3   3.66   3664   2654      0   3419   6318      0    0.0  0.000      0      0  0.000  0.000  0.079  0.000   1.64   0.00   0.00      0      0    100.0   0.00   0.00   0.95   4.00   4.00   4.00   4.00   4.00   3.35   1.97   0.00   0.00   0.00      0      0      0       0     382
 1990 312   101    98   21.0      3   3.66   3695   2746      0   3417   6441      0    0.0  0.000      0      0  0.000  0.000  0.080  0.000   1.62   0.00   0.00      0      0     99.0   0.00   0.00   0.95   4.00   4.00   4.00   4.00   3.99   3.35   2.02   0.00   0.00   0.00      0      0      0       0     400
 1990 313   102    99   21.0      3   3.67   3742   2888      0   3455   6630      0    0.0  0.000      0      0  0.000  0.000  0.082  0.000   1.59   0.00   0.00      0      0     97.9   0.00   0.00   0.96   4.00   4.00   4.00   4.00   4.00   3.37   2.23   0.00   0.00   0.00      0      0      0       0     417
 1990 314   103   100   21.0      3   3.67   3791   3038      0   3533   6829      0    0.0  0.000      0      0  0.000  0.000  0.082  0.000   1.56   0.00   0.00      0      0     96.9   0.00   0.00   0.97   4.00   4.00   4.00   4.00   4.00   3.43   2.61   0.00   0.00   0.00      0      0      0       0     434
 1990 315   104   101   21.0      3   3.69   3849   3212      0   3617   7061      0    0.0  0.000      0      0  0.000  0.000  0.084  0.000   1.52   0.00   0.00      0      0     95.9   0.00   0.00   0.99   4.00   4.00   4.00   4.00   4.00   3.49   3.00   0.00   0.00   0.00      0      0      0       0     452
 1990 316   105   102   21.0      3   3.70   3899   3361      0   3611   7259      0    0.0  0.000      0      0  0.000  0.000  0.088  0.000   1.49   0.00   0.00      0      0     94.8   0.00   0.00   1.00   4.00   4.00   4.00   3.99   3.99   3.48   3.04   0.00   0.00   0.00      0      0      0       0     470
 1990 317   106   103   21.0      3   3.73   3980   3602      0   3676   7582      0    0.0  0.000      0      0  0.000  0.000  0.090  0.000   1.44   0.00   0.00      0      0     93.8   0.00   0.00   1.02   4.00   4.00   4.00   4.00   4.00   3.53   3.33   0.00   0.00   0.00      0      0      0       0     488
 1990 318   107   104   21.0      3   3.75   4045   3797      0   3672   7843      0    0.0  0.000      0      0  0.000  0.000  0.091  0.000   1.40   0.00   0.00      0      0     92.7   0.00   0.00   1.03   4.00   4.00   4.00   3.99   3.99   3.52   3.37   0.00   0.00   0.00      0      0      0       0     506
 1990 319   108   105   21.0      4   3.70   4004   3204      0   3660   7945      0    0.0  0.000    737      0  0.000  0.000  0.098  0.000   1.54   0.00   0.09      0    737     92.5   0.00   0.00   1.05   4.00   4.00   4.00   3.98   3.98   3.51   3.37   0.00   0.00   0.00      0      0      0       0     524
 1990 320   109   106   21.0      4   3.66   3961   3246      0   3727   8049      0    0.0  0.000    842      0  0.000  0.000  0.103  0.000   1.55   0.00   0.10      0    842     92.3   0.00   0.00   1.05   4.00   4.00   4.00   4.00   4.00   3.57   3.58   0.00   0.00   0.00      0      0      0       0     543
 1990 321   110   107   21.0      4   3.62   3915   3295      0   3891   8173      0    0.0  0.000    963      0  0.000  0.000  0.076  0.000   1.56   0.00   0.12      0    963     92.5   0.00   0.00   1.06   4.00   4.00   4.00   4.00   4.00   3.73   3.93   0.00   0.00   0.00      0      0      0       0     561
 1990 322   111   108   21.0      4   3.59   3867   3371      0   3996   8393      0    0.0  0.000   1155      0  0.000  0.000  0.070  0.008   1.56   0.00   0.14      0   1155     92.9   0.00   0.00   1.08   4.00   4.00   4.00   4.00   4.00   3.84   4.00   0.00   0.00   0.00      0      0      0       0     581
 1990 323   112   109   21.0      4   3.56   3815   3473      0   4053   8696      0    0.0  0.000   1408      0  0.000  0.000  0.064  0.000   1.56   0.00   0.16      0   1408     93.4   0.00   0.00   1.10   4.00   4.00   4.00   4.00   4.00   3.90   4.00   0.00   0.00   0.00      0      0      0       0     601
 1990 324   113   110   21.0      4   3.54   3759   3533      0   4042   8852      0    0.0  0.000   1559      0  0.000  0.000  0.060  0.000   1.57   0.00   0.18      0   1559     94.0   0.00   0.00   1.11   4.00   4.00   4.00   3.99   3.99   3.89   3.99   0.01   0.00   0.00      0      0      0       0     621
 1990 325   114   111   21.0      4   3.51   3701   3617      0   4166   9085      0    0.0  0.000   1768      0  0.000  0.000  0.056  0.000   1.57   0.00   0.19      0   1768     94.9   0.00   0.00   1.12   4.00   4.00   4.00   4.00   4.00   4.00   4.00   0.25   0.00   0.00      0      0      0       0     641
 1990 326   115   112   21.0      4   3.49   3639   3690      0   4283   9280      0    0.0  0.000   1950      0  0.000  0.000  0.052  0.000   1.58   0.00   0.21      0   1950     95.8   0.00   0.00   1.13   4.00   4.00   4.00   4.00   4.00   4.00   4.00   0.53   0.00   0.00      0      0      0       0     662
 1990 327   116   113   21.0      4   3.47   3575   3761      0   4420   9466      0    0.0  0.000   2129      0  0.000  0.000  0.048  0.000   1.59   0.00   0.22      0   2129     97.0   0.00   0.00   1.14   4.00   4.00   4.00   4.00   4.00   4.00   4.00   0.87   0.00   0.00      0      0      0       0     684
 1990 328   117   114   21.0      4   3.45   3509   3842      0   4500   9681      0    0.0  0.000   2331      0  0.000  0.000  0.045  0.000   1.60   0.00   0.24      0   2331     98.3   0.00   0.00   1.15   4.00   4.00   4.00   4.00   4.00   4.00   4.00   1.10   0.00   0.00      0      0      0       0     706
 1990 329   118   115   21.0      4   3.43   3438   3929      0   4518   9915      0    0.0  0.000   2548      0  0.000  0.000  0.041  0.000   1.60   0.00   0.26      0   2548     99.8   0.00   0.00   1.16   4.00   4.00   4.00   4.00   4.00   4.00   4.00   1.19   0.00   0.00      0      0      0       0     728
 1990 330   119   116   21.0      4   3.41   3366   3998      0   4594  10084      0    0.0  0.000   2720      0  0.000  0.000  0.038  0.000   1.61   0.00   0.27      0   2720    101.4   0.00   0.00   1.17   4.00   4.00   4.00   4.00   4.00   4.00   4.00   1.42   0.00   0.00      0      0      0       0     751
 1990 331   120   117   21.0      5   3.39   3366   3998    120   4683  10204   3658    3.3  0.012   2841      7  0.000  0.000  0.057  0.000   1.59   4.24   0.28      0   2841    100.7   0.00   0.00   1.17   4.00   4.00   4.00   4.00   4.00   4.00   4.00   1.68   0.00   0.00      0      0      0       0     774
 1990 332   121   118   21.0      5   3.36   3366   3998    268   4767  10352   3658    7.3  0.026   2988      7  0.000  0.000  0.063  0.000   1.57   8.96   0.29      0   2988     99.9   0.00   0.00   1.18   4.00   4.00   4.00   4.00   4.00   4.00   4.00   1.91   0.00   0.00      0      0      0       0     797
 1990 333   122   119   21.0      5   3.34   3366   3998    478   4834  10562   3658   13.1  0.045   3199      7  0.000  0.000  0.063  0.000   1.53  14.96   0.30      0   3199     99.1   0.00   0.00   1.19   4.00   4.00   4.00   4.00   4.00   4.00   4.00   2.10   0.00   0.00      0      0      0       0     821
 1990 334   123   120   21.0      5   3.31   3366   3998    716   4820  10800   3658   19.6  0.066   3436      7  0.000  0.000  0.067  0.000   1.49  20.83   0.32      0   3436     98.3   0.00   0.00   1.20   4.00   4.00   4.00   3.99   3.99   3.99   3.99   2.11   0.00   0.00      0      0      0       0     845
 1990 335   124   121   21.0      5   3.28   3366   3998    947   4845  11031   3658   25.9  0.086   3667      7  0.000  0.000  0.073  0.000   1.46  25.82   0.33      0   3667     97.4   0.00   0.00   1.20   4.00   4.00   4.00   4.00   4.00   4.00   4.00   2.19   0.00   0.00      0      0      0       0     869
 1990 336   125   122   21.0      5   3.25   3366   3970   1139   4821  11194   3658   31.1  0.102   3859      7  0.000  0.000  0.080  0.000   1.43  29.50   0.34      0   3859     96.4   0.00   0.00   1.20   4.00   4.00   4.00   4.00   4.00   4.00   4.00   2.19   0.00   0.00      0      0      0       0     893
 1990 337   126   123   21.0      5   3.21   3366   3998   1294   4894  11378   3658   35.4  0.114   4014      7  0.000  0.000  0.085  0.000   1.40  32.23   0.35      0   4014     95.4   0.00   0.00   1.21   4.00   4.00   4.00   4.00   4.00   4.00   4.00   2.33   0.00   0.00      0      0      0       0     918
 1990 338   127   124   21.0      5   3.18   3366   3998   1495   4948  11579   3658   40.9  0.129   4216      7  0.000  0.000  0.085  0.000   1.37  35.47   0.36      0   4216     94.4   0.00   0.00   1.22   4.00   4.00   4.00   4.00   4.00   4.00   4.00   2.43   0.00   0.00      0      0      0       0     942
 1990 339   128   125   21.0      5   3.14   3366   3998   1770   4930  11854   3658   48.4  0.149   4490      7  0.000  0.000  0.089  0.000   1.32  39.41   0.38      0   4490     93.3   0.00   0.00   1.23   4.00   4.00   4.00   3.99   3.99   3.99   3.98   2.42   0.00   0.00      0      0      0       0     967
 1990 340   129   126   21.0      5   3.10   3366   3998   2023   4916  12107   3658   55.3  0.167   4743      7  0.000  0.000  0.098  0.000   1.28  42.65   0.39      0   4743     92.2   0.00   0.00   1.24   4.00   4.00   4.00   3.98   3.98   3.98   3.97   2.42   0.00   0.00      0      0      0       0     991
 1990 341   130   127   21.0      5   3.06   3366   3998   2255   4951  12339   3658   61.6  0.183   4975      7  0.000  0.000  0.106  0.000   1.24  45.32   0.40      0   4975     91.0   0.00   0.00   1.25   4.00   4.00   4.00   4.00   4.00   4.00   4.00   2.45   0.00   0.00      0      0      0       0    1016
 1990 342   131   128   21.0      5   3.02   3366   3998   2440   5011  12524   3658   66.7  0.195   5160      7  0.000  0.000  0.114  0.063   1.22  47.28   0.41      0   5160     89.7   0.00   0.00   1.25   4.00   4.00   4.00   4.00   4.00   4.00   4.00   2.48   0.00   0.00      0      0      0       0    1041
 1990 343   132   129   21.0      5   2.97   3366   3998   2590   4987  12674   3658   70.8  0.204   5311      7  0.000  0.000  0.120  0.085   1.20  48.78   0.42      0   5311     88.3   0.00   0.00   1.25   3.98   3.98   3.98   3.98   3.98   3.98   3.98   2.47   0.00   0.00      0      0      0       0    1066
 1990 344   133   130   21.0      5   2.93   3366   3985   2758   4962  12829   3658   75.4  0.215   5478      7  0.000  0.000  0.123  0.425   1.17  50.34   0.43      0   5478     87.0   0.00   0.00   1.25   3.98   3.98   3.98   3.98   3.98   3.98   3.98   2.47   0.00   0.00      0      0      0       0    1091
 1990 345   134   131   21.0      5   2.88   3366   3998   2973   4988  13057   3658   81.3  0.228   5693      7  0.000  0.000  0.127  0.231   1.14  52.22   0.44      0   5693     85.6   0.00   0.00   1.25   4.00   4.00   4.00   3.98   3.98   3.96   3.95   2.45   0.00   0.00      0      0      0       0    1116
 1990 346   135   132   21.0      5   2.83   3366   3998   3108   4990  13192   3658   85.0  0.236   5828      7  0.000  0.000  0.136  0.127   1.12  53.32   0.44      0   5828     84.2   0.00   0.00   1.25   4.00   4.00   4.00   4.00   3.99   3.97   3.95   2.45   0.00   0.00      0      0      0       0    1141
 1990 347   136   133   21.0      5   2.78   3366   3998   3307   4994  13391   3658   90.4  0.247   6028      7  0.000  0.000  0.138  0.046   1.09  54.87   0.45      0   6028     82.7   0.00   0.00   1.25   4.00   4.00   4.00   4.00   4.00   3.98   3.95   2.45   0.00   0.00      0      0      0       0    1165
 1990 348   137   134   21.0      5   2.73   3366   3998   3439   5055  13523   3658   94.0  0.254   6159      7  0.000  0.000  0.146  0.004   1.08  55.83   0.46      0   6159     81.2   0.00   0.00   1.25   4.00   4.00   4.00   4.00   4.00   4.00   4.00   2.47   0.00   0.00      0      0      0       0    1190
 1990 349   138   135   21.0      5   2.68   3366   3998   3638   5109  13722   3658   99.5  0.265   6358      7  0.000  0.000  0.147  0.000   1.05  57.21   0.46      0   6358     79.7   0.00   0.00   1.25   4.00   4.00   4.00   4.00   4.00   4.00   4.00   2.49   0.00   0.00      0      0      0       0    1216
 1990 350   139   136   21.0      5   2.63   3366   3998   3900   5133  13984   3658  106.6  0.279   6620      7  0.000  0.000  0.152  0.000   1.01  58.91   0.47      0   6620     78.2   0.00   0.00   1.25   4.00   4.00   4.00   4.00   4.00   4.00   4.00   2.49   0.00   0.00      0      0      0       0    1241
 1990 351   140   137   21.0      5   2.58   3366   3951   4174   5107  14211   3658  114.1  0.294   6894      7  0.000  0.000  0.160  0.000   0.98  60.54   0.49      0   6894     76.6   0.00   0.00   1.25   4.00   4.00   4.00   4.00   4.00   4.00   4.00   2.49   0.00   0.00      0      0      0       0    1267
 1990 352   141   138   21.0      5   2.52   3366   3998   4425   5125  14509   3658  121.0  0.305   7145      7  0.000  0.000  0.171  0.000   0.95  61.93   0.49      0   7145     75.0   0.00   0.00   1.25   4.00   4.00   4.00   4.00   4.00   4.00   4.00   2.50   0.00   0.00      0      0      0       0    1292
 1990 353   142   139   21.0      5   2.47   3366   3998   4643   5165  14727   3658  127.0  0.315   7364      7  0.000  0.000  0.177  0.000   0.92  63.06   0.50      0   7364     73.3   0.00   0.00   1.25   4.00   4.00   4.00   4.00   4.00   4.00   4.00   2.51   0.00   0.00      0      0      0       0    1318
 1990 354   143   140   21.0      5   2.41   3366   3998   4874   5200  14958   3658  133.3  0.326   7595      7  0.000  0.000  0.188  0.020   0.89  64.18   0.51      0   7595     71.6   0.00   0.00   1.25   4.00   4.00   4.00   4.00   4.00   4.00   4.00   2.52   0.00   0.00      0      0      0       0    1344
 1990 355   144   141   21.0      5   2.35   3366   3998   5149   5200  15233   3658  140.8  0.338   7869      7  0.000  0.000  0.194  0.000   0.86  65.43   0.52      0   7869     69.9   0.00   0.00   1.25   4.00   4.00   4.00   4.00   4.00   4.00   4.00   2.52   0.00   0.00      0      0      0       0    1370
 1990 356   145   142   21.0      5   2.29   3366   3870   5420   5174  15376   3658  148.2  0.352   8140      7  0.000  0.000  0.212  0.000   0.84  66.58   0.53      0   8140     68.1   0.00   0.00   1.25   4.00   4.00   4.00   4.00   4.00   4.00   4.00   2.52   0.00   0.00      0      0      0       0    1396
 1990 357   146   143   21.0      5   2.23   3366   3864   5694   5149  15644   3658  155.7  0.364   8414      7  0.000  0.000  0.241  0.000   0.81  67.67   0.54      0   8414     66.3   0.00   0.00   1.25   4.00   4.00   4.00   4.00   4.00   4.00   4.00   2.52   0.00   0.00      0      0      0       0    1422
 1990 358   147   144   21.0      5   2.17   3366   3821   5911   5123  15818   3658  161.6  0.374   8632      7  0.000  0.000  0.256  0.330   0.79  68.48   0.55      0   8632     64.4   0.00   0.00   1.25   4.00   4.00   4.00   4.00   4.00   4.00   4.00   2.52   0.00   0.00      0      0      0       0    1448
 1990 359   148   145   21.0      5   2.11   3366   3909   6112   5141  16107   3658  167.1  0.379   8832      7  0.000  0.000  0.280  0.153   0.76  69.20   0.55      0   8832     62.6   0.00   0.00   1.25   4.00   4.00   4.00   4.00   4.00   4.00   4.00   2.53   0.00   0.00      0      0      0       0    1473
 1990 360   149   146   21.0      5   2.05   3366   3967   6386   5145  16440   3658  174.6  0.388   9107      7  0.000  0.000  0.291  0.045   0.73  70.13   0.55      0   9107     60.8   0.00   0.00   1.25   4.00   4.00   4.00   4.00   4.00   4.00   4.00   2.52   0.00   0.00      0      0      0       0    1499
 1990 361   150   147   21.0      5   1.98   3366   3998   6661   5141  16745   3658  182.1  0.398   9381      7  0.000  0.000  0.333  0.005   0.70  71.00   0.56      0   9381     59.0   0.00   0.00   1.25   4.00   4.00   4.00   4.00   4.00   4.00   4.00   2.52   0.00   0.00      0      0      0       0    1525
 1990 362   151   148   21.0      5   1.92   3366   3998   6816   5161  16900   3658  186.3  0.403   9536      7  0.000  0.000  0.376  0.000   0.69  71.47   0.56      0   9536     57.1   0.00   0.00   1.25   4.00   4.00   4.00   4.00   4.00   4.00   4.00   2.53   0.00   0.00      0      0      0       0    1550
 1990 363   152   149   21.0      5   1.86   3366   3998   6953   5178  17037   3658  190.1  0.408   9673      7  0.000  0.000  0.388  0.000   0.69  71.88   0.57      0   9673     55.2   0.00   0.00   1.25   4.00   4.00   4.00   4.00   4.00   4.00   4.00   2.53   0.00   0.00      0      0      0       0    1576
 1990 364   153   150   21.0      5   1.80   3366   3998   7156   5180  17240   3658  195.6  0.415   9876      7  0.000  0.000  0.391  0.000   0.67  72.45   0.57      0   9876     53.4   0.00   0.00   1.25   4.00   4.00   4.00   4.00   4.00   4.00   4.00   2.53   0.00   0.00      0      0      0       0    1602
 1990 365   154   151   21.0      5   1.74   3366   3998   7421   5165  17505   3658  202.9  0.424  10142      7  0.000  0.000  0.406  0.000   0.65  73.18   0.58      0  10142     51.6   0.00   0.00   1.25   4.00   4.00   4.00   4.00   3.99   3.99   3.99   2.52   0.00   0.00      0      0      0       0    1628
 1991 001   155   152   21.0      5   1.68   3366   3948   7695   5139  17730   3658  210.4  0.434  10416      7  0.000  0.000  0.432  0.000   0.63  73.88   0.59      0  10416     49.8   0.00   0.00   1.25   4.00   4.00   4.00   4.00   3.99   3.99   3.99   2.52   0.00   0.00      0      0      0       0    1654
 1991 002   156   153   21.0      5   1.62   3366   3883   7970   5114  17939   3658  217.9  0.444  10690      7  0.000  0.000  0.460  0.000   0.62  74.55   0.60      0  10690     48.0   0.00   0.00   1.25   4.00   4.00   4.00   4.00   3.99   3.99   3.99   2.52   0.00   0.00      0      0      0       0    1679
 1991 003   157   154   21.0      5   1.56   3366   3827   8244   5088  18157   3658  225.4  0.454  10965      7  0.000  0.000  0.482  0.000   0.60  75.19   0.60      0  10965     46.2   0.00   0.00   1.25   4.00   4.00   4.00   4.00   3.99   3.99   3.99   2.52   0.00   0.00      0      0      0       0    1705
 1991 004   158   155   21.0      5   1.50   3366   3827   8485   5063  18399   3658  232.0  0.461  11205      7  0.000  0.000  0.501  0.000   0.59  75.72   0.61      0  11205     44.5   0.00   0.00   1.25   3.98   3.98   3.98   3.98   3.97   3.97   3.97   2.51   0.00   0.00      0      0      0       0    1730
 1991 005   159   156   21.0      5   1.44   3366   3817   8726   5038  18630   3658  238.6  0.468  11446      7  0.000  0.000  0.515  0.000   0.58  76.23   0.61      0  11446     42.8   0.00   0.00   1.25   3.98   3.98   3.98   3.98   3.97   3.97   3.97   2.51   0.00   0.00      0      0      0       0    1756
 1991 006   160   157   21.0      5   1.38   3366   3779   8980   5012  18845   3658  245.5  0.477  11701      7  0.000  0.000  0.538  0.000   0.56  76.75   0.62      0  11701     41.1   0.00   0.00   1.25   3.98   3.98   3.98   3.98   3.97   3.97   3.97   2.51   0.00   0.00      0      0      0       0    1781
 1991 007   161   158   21.0      5   1.33   3366   3695   9254   4987  19036   3658  253.0  0.486  11975      7  0.000  0.000  0.561  0.000   0.56  77.28   0.63      0  11975     39.5   0.00   0.00   1.25   3.98   3.98   3.98   3.98   3.97   3.97   3.97   2.51   0.00   0.00      0      0      0       0    1806
 1991 008   162   159   21.0      5   1.27   3366   3602   9529   4962  19217   3658  260.5  0.496  12249      7  0.000  0.000  0.575  0.000   0.55  77.79   0.64      0  12249     37.9   0.00   0.00   1.25   3.98   3.98   3.98   3.98   3.97   3.97   3.97   2.51   0.00   0.00      0      0      0       0    1831
 1991 009   163   160   21.0      5   1.27   3366   3602   9529   4962  19217   3658  260.5  0.496  12249      7  0.000  0.000  0.575  0.000   0.55  77.79   0.64      0  12249     37.9   0.00   0.00   1.25   3.98   3.98   3.98   3.98   3.97   3.97   3.97   2.51   0.00   0.00      0      0      0       0    1831
 1991 010   164   161   21.0      5   1.27   3366   3602   9529   4962  19217   3658  260.5  0.496  12249      7  0.000  0.000  0.575  0.000   0.55  77.79   0.64      0  12249     37.9   0.00   0.00   1.25   3.98   3.98   3.98   3.98   3.97   3.97   3.97   2.51   0.00   0.00      0      0      0       0    1831
 1991 011   165   162   21.0      5   1.27   3366   3602   9529   4962  19217   3658  260.5  0.496  12249      7  0.000  0.000  0.575  0.000   0.55  77.79   0.64      0  12249     37.9   0.00   0.00   1.25   3.98   3.98   3.98   3.98   3.97   3.97   3.97   2.51   0.00   0.00      0      0      0       0    1831

*DSSAT Cropping System Model Ver. 4.0.2.000               Aug 02, 2016; 15:29:24

*RUN   2        : UYMZ                    
 MODEL          : MZCER040 - Maize           
 EXPERIMENT     : UYMZ0107 MZ    late to create DSS                             
 TREATMENT  1   : UYMZ                    

@YEAR DOY   DAS   DAP   L#SD   GSTD   LAID   LWAD   SWAD   GWAD   RWAD   CWAD   G#AD   GWGD   HIAD   PWAD   P#AD   WSPD   WSGD   NSTD   EWSD   LN%D   SH%D   HIPD   PWDD   PWTD     SLAD   CHTD   CWID   RDPD   RL1D   RL2D   RL3D   RL4D   RL5D   RL6D   RL7D   RL8D   RL9D   RL10   CDAD   LDAD   SDAD   SNW0C   SNW1C
 1991 214     3     0    0.0      0   0.00      0      0      0      0      0      0    0.0  0.000      0      0  0.000  0.000  0.000  0.000   0.00   0.00   0.00      0      0      0.0   0.00   0.00   0.03   0.00   0.00   0.00   0.00   0.00   0.00   0.00   0.00   0.00   0.00      0      0      0       0       0
 1991 215     4     1    0.0      0   0.00      0      0      0      0      0      0    0.0  0.000      0      0  0.000  0.000  0.000  0.000   0.00   0.00   0.00      0      0      0.0   0.00   0.00   0.03   0.00   0.00   0.00   0.00   0.00   0.00   0.00   0.00   0.00   0.00      0      0      0       0       0
 1991 216     5     2    0.0      0   0.00      0      0      0      0      0      0    0.0  0.000      0      0  0.000  0.000  0.000  0.000   0.00   0.00   0.00      0      0      0.0   0.00   0.00   0.03   0.00   0.00   0.00   0.00   0.00   0.00   0.00   0.00   0.00   0.00      0      0      0       0       0
 1991 217     6     3    0.0      0   0.00      0      0      0      0      0      0    0.0  0.000      0      0  0.000  0.000  0.000  0.000   0.00   0.00   0.00      0      0      0.0   0.00   0.00   0.03   0.00   0.00   0.00   0.00   0.00   0.00   0.00   0.00   0.00   0.00      0      0      0       0       0
 1991 218     7     4    0.0      0   0.00      0      0      0      0      0      0    0.0  0.000      0      0  0.000  0.000  0.000  0.000   0.00   0.00   0.00      0      0      0.0   0.00   0.00   0.03   0.00   0.00   0.00   0.00   0.00   0.00   0.00   0.00   0.00   0.00      0      0      0       0       0
 1991 219     8     5    0.0      0   0.00      0      0      0      0      0      0    0.0  0.000      0      0  0.000  0.000  0.000  0.000   0.00   0.00   0.00      0      0      0.0   0.00   0.00   0.03   0.00   0.00   0.00   0.00   0.00   0.00   0.00   0.00   0.00   0.00      0      0      0       0       0
 1991 220     9     6    0.0      0   0.00      0      0      0      0      0      0    0.0  0.000      0      0  0.000  0.000  0.000  0.000   0.00   0.00   0.00      0      0      0.0   0.00   0.00   0.04   0.00   0.00   0.00   0.00   0.00   0.00   0.00   0.00   0.00   0.00      0      0      0       0       0
 1991 221    10     7    0.0      0   0.00      0      0      0      0      0      0    0.0  0.000      0      0  0.000  0.000  0.000  0.000   0.00   0.00   0.00      0      0      0.0   0.00   0.00   0.05   0.00   0.00   0.00   0.00   0.00   0.00   0.00   0.00   0.00   0.00      0      0      0       0       0
 1991 222    11     8    0.0      0   0.00      0      0      0      0      0      0    0.0  0.000      0      0  0.000  0.000  0.000  0.000   0.00   0.00   0.00      0      0      0.0   0.00   0.00   0.05   0.00   0.00   0.00   0.00   0.00   0.00   0.00   0.00   0.00   0.00      0      0      0       0       0
 1991 223    12     9    0.0      0   0.00      0      0      0      0      0      0    0.0  0.000      0      0  0.000  0.000  0.000  0.000   0.00   0.00   0.00      0      0      0.0   0.00   0.00   0.05   0.00   0.00   0.00   0.00   0.00   0.00   0.00   0.00   0.00   0.00      0      0      0       0       0
 1991 224    13    10    0.0      0   0.00      0      0      0      0      0      0    0.0  0.000      0      0  0.000  0.000  0.000  0.000   0.00   0.00   0.00      0      0      0.0   0.00   0.00   0.05   0.00   0.00   0.00   0.00   0.00   0.00   0.00   0.00   0.00   0.00      0      0      0       0       0
 1991 225    14    11    0.0      0   0.00      0      0      0      0      0      0    0.0  0.000      0      0  0.000  0.000  0.000  0.000   0.00   0.00   0.00      0      0      0.0   0.00   0.00   0.06   0.00   0.00   0.00   0.00   0.00   0.00   0.00   0.00   0.00   0.00      0      0      0       0       0
 1991 226    15    12    0.0      0   0.00      0      0      0      0      0      0    0.0  0.000      0      0  0.000  0.000  0.000  0.000   0.00   0.00   0.00      0      0      0.0   0.00   0.00   0.08   0.00   0.00   0.00   0.00   0.00   0.00   0.00   0.00   0.00   0.00      0      0      0       0       0
 1991 227    16    13    0.0      0   0.00      0      0      0      0      0      0    0.0  0.000      0      0  0.000  0.000  0.000  0.000   0.00   0.00   0.00      0      0      0.0   0.00   0.00   0.10   0.00   0.00   0.00   0.00   0.00   0.00   0.00   0.00   0.00   0.00      0      0      0       0       0
 1991 228    17    14    2.0      1   0.00     14     14      0     14     28      0    0.0  0.000      0      0  0.000  0.000  0.012  0.000   4.40   0.00   0.00      0      0     24.9   0.00   0.00   0.11   0.28   0.07   0.00   0.00   0.00   0.00   0.00   0.00   0.00   0.00      0      0      0       0       0
 1991 229    18    15    2.0      1   0.01     14     14      0     14     28      0    0.0  0.000      0      0  0.000  0.000  0.017  0.000   4.54   0.00   0.00      0      0     43.5   0.00   0.00   0.12   0.28   0.07   0.00   0.00   0.00   0.00   0.00   0.00   0.00   0.00      0      0      0       0       0
 1991 230    19    16    2.0      1   0.01     14     14      0     15     28      0    0.0  0.000      0      0  0.000  0.000  0.000  0.000   4.54   0.00   0.00      0      0     64.2   0.00   0.00   0.13   0.29   0.08   0.00   0.00   0.00   0.00   0.00   0.00   0.00   0.00      0      0      0       0       0
 1991 231    20    17    3.0      1   0.01     14     14      0     16     28      0    0.0  0.000      0      0  0.000  0.000  0.000  0.000   4.48   0.00   0.00      0      0     87.2   0.00   0.00   0.14   0.30   0.09   0.00   0.00   0.00   0.00   0.00   0.00   0.00   0.00      0      0      0       0       0
 1991 232    21    18    3.0      1   0.02     14     14      0     17     28      0    0.0  0.000      0      0  0.000  0.000  0.000  0.000   4.45   0.00   0.00      0      0    112.4   0.00   0.00   0.16   0.31   0.10   0.00   0.00   0.00   0.00   0.00   0.00   0.00   0.00      0      0      0       0       0
 1991 233    22    19    3.0      1   0.02     14     14      0     19     28      0    0.0  0.000      0      0  0.000  0.000  0.000  0.000   4.42   0.00   0.00      0      0    140.1   0.00   0.00   0.17   0.33   0.13   0.00   0.00   0.00   0.00   0.00   0.00   0.00   0.00      0      0      0       0       0
 1991 234    23    20    4.0      1   0.03     14     14      0     21     28      0    0.0  0.000      0      0  0.000  0.000  0.000  0.000   4.39   0.00   0.00      0      0    246.9   0.00   0.00   0.18   0.35   0.15   0.01   0.00   0.00   0.00   0.00   0.00   0.00   0.00      0      0      0       0       0
 1991 235    24    21    4.0      1   0.05     14     14      0     26     28      0    0.0  0.000      0      0  0.000  0.000  0.000  0.000   4.37   0.00   0.00      0      0    342.6   0.00   0.00   0.19   0.40   0.20   0.02   0.00   0.00   0.00   0.00   0.00   0.00   0.00      0      0      0       0       0
 1991 236    25    22    4.0      1   0.06     18     14      0     31     32      0    0.0  0.000      0      0  0.000  0.000  0.000  0.000   3.82   0.00   0.00      0      0    326.9   0.00   0.00   0.20   0.44   0.25   0.04   0.00   0.00   0.00   0.00   0.00   0.00   0.00      0      0      0       0       1
 1991 237    26    23    5.0      1   0.07     24     14      0     35     38      0    0.0  0.000      0      0  0.000  0.000  0.000  0.000   3.61   0.00   0.00      0      0    307.4   0.00   0.00   0.21   0.47   0.28   0.06   0.00   0.00   0.00   0.00   0.00   0.00   0.00      0      0      0       0       1
 1991 238    27    24    5.0      1   0.08     28     14      0     36     42      0    0.0  0.000      0      0  0.000  0.000  0.000  0.000   3.88   0.00   0.00      0      0    297.6   0.00   0.00   0.22   0.48   0.29   0.06   0.00   0.00   0.00   0.00   0.00   0.00   0.00      0      0      0       0       1
 1991 239    28    25    5.0      1   0.09     32     14      0     37     46      0    0.0  0.000      0      0  0.000  0.000  0.000  0.000   3.95   0.00   0.00      0      0    290.4   0.00   0.00   0.22   0.49   0.30   0.07   0.00   0.00   0.00   0.00   0.00   0.00   0.00      0      0      0       0       1
 1991 240    29    26    5.0      1   0.11     39     14      0     42     53      0    0.0  0.000      0      0  0.000  0.000  0.000  0.000   3.70   0.00   0.00      0      0    278.8   0.00   0.00   0.23   0.52   0.34   0.09   0.00   0.00   0.00   0.00   0.00   0.00   0.00      0      0      0       0       1
 1991 241    30    27    5.0      1   0.13     49     14      0     47     63      0    0.0  0.000      0      0  0.000  0.000  0.000  0.000   3.59   0.00   0.00      0      0    266.6   0.00   0.00   0.24   0.56   0.38   0.12   0.00   0.00   0.00   0.00   0.00   0.00   0.00      0      0      0       0       1
 1991 242    31    28    6.0      1   0.16     61     14      0     48     75      0    0.0  0.000      0      0  0.000  0.000  0.000  0.000   3.52   0.00   0.00      0      0    254.6   0.00   0.00   0.25   0.57   0.39   0.13   0.00   0.00   0.00   0.00   0.00   0.00   0.00      0      0      0       0       2
 1991 243    32    29    6.0      1   0.17     67     14      0     51     81      0    0.0  0.000      0      0  0.000  0.000  0.000  0.000   3.87   0.00   0.00      0      0    249.5   0.00   0.00   0.26   0.59   0.41   0.14   0.00   0.00   0.00   0.00   0.00   0.00   0.00      0      0      0       0       2
 1991 244    33    30    6.0      1   0.18     72     14      0     58     86      0    0.0  0.000      0      0  0.000  0.000  0.000  0.000   3.95   0.00   0.00      0      0    245.9   0.00   0.00   0.26   0.62   0.46   0.19   0.00   0.00   0.00   0.00   0.00   0.00   0.00      0      0      0       0       2
 1991 245    34    31    6.0      1   0.19     80     14      0     62     94      0    0.0  0.000      0      0  0.000  0.000  0.000  0.000   3.82   0.00   0.00      0      0    240.6   0.00   0.00   0.27   0.64   0.49   0.21   0.00   0.00   0.00   0.00   0.00   0.00   0.00      0      0      0       0       2
 1991 246    35    32    6.0      1   0.22     95     14      0     71    109      0    0.0  0.000      0      0  0.000  0.000  0.000  0.011   3.60   0.00   0.00      0      0    232.6   0.00   0.00   0.28   0.69   0.55   0.27   0.00   0.00   0.00   0.00   0.00   0.00   0.00      0      0      0       0       3
 1991 247    36    33    7.0      1   0.25    114     14      0     93    128      0    0.0  0.000      0      0  0.000  0.000  0.000  0.000   3.50   0.00   0.00      0      0    224.0   0.00   0.00   0.29   0.80   0.70   0.43   0.00   0.00   0.00   0.00   0.00   0.00   0.00      0      0      0       0       3
 1991 248    37    34    7.0      1   0.30    137     14      0    119    151      0    0.0  0.000      0      0  0.000  0.000  0.000  0.000   3.45   0.00   0.00      0      0    215.4   0.00   0.00   0.31   0.92   0.85   0.62   0.00   0.00   0.00   0.00   0.00   0.00   0.00      0      0      0       0       4
 1991 249    38    35    7.0      1   0.33    159     14      0    121    173      0    0.0  0.000      0      0  0.000  0.000  0.000  0.000   3.54   0.00   0.00      0      0    208.9   0.00   0.00   0.31   0.93   0.87   0.63   0.00   0.00   0.00   0.00   0.00   0.00   0.00      0      0      0       0       4
 1991 250    39    36    8.0      1   0.36    174     14      0    127    188      0    0.0  0.000      0      0  0.000  0.000  0.000  0.000   3.73   0.00   0.00      0      0    205.1   0.00   0.00   0.32   0.96   0.90   0.68   0.00   0.00   0.00   0.00   0.00   0.00   0.00      0      0      0       0       5
 1991 251    40    37    8.0      1   0.38    187     14      0    136    201      0    0.0  0.000      0      0  0.000  0.000  0.000  0.000   3.77   0.00   0.00      0      0    202.1   0.00   0.00   0.33   0.99   0.95   0.73   0.01   0.00   0.00   0.00   0.00   0.00   0.00      0      0      0       0       5
 1991 252    41    38    8.0      1   0.40    203     14      0    172    217      0    0.0  0.000      0      0  0.000  0.000  0.000  0.000   3.72   0.00   0.00      0      0    198.7   0.00   0.00   0.34   1.15   1.17   0.98   0.03   0.00   0.00   0.00   0.00   0.00   0.00      0      0      0       0       6
 1991 253    42    39    8.0      1   0.44    225     14      0    213    239      0    0.0  0.000      0      0  0.000  0.000  0.000  0.000   3.62   0.00   0.00      0      0    194.4   0.00   0.00   0.35   1.33   1.42   1.26   0.07   0.00   0.00   0.00   0.00   0.00   0.00      0      0      0       0       7
 1991 254    43    40    8.0      1   0.48    256     14      0    262    270      0    0.0  0.000      0      0  0.000  0.000  0.000  0.000   3.52   0.00   0.00      0      0    189.4   0.00   0.00   0.37   1.53   1.70   1.58   0.13   0.00   0.00   0.00   0.00   0.00   0.00      0      0      0       0       8
 1991 255    44    41    9.0      1   0.55    299     14      0    309    313      0    0.0  0.000      0      0  0.000  0.000  0.000  0.000   3.40   0.00   0.00      0      0    183.3   0.00   0.00   0.38   1.73   1.97   1.88   0.20   0.00   0.00   0.00   0.00   0.00   0.00      0      0      0       0       9
 1991 256    45    42    9.0      1   0.63    355     14      0    339    369      0    0.0  0.000      0      0  0.000  0.000  0.000  0.000   3.31   0.00   0.00      0      0    176.9   0.00   0.00   0.41   1.85   2.13   2.07   0.25   0.00   0.00   0.00   0.00   0.00   0.00      0      0      0       0      11
 1991 257    46    43    9.0      2   0.67    352     14      0    364    366      0    0.0  0.000      0      0  0.000  0.000  0.000  0.000   3.91   0.00   0.00      0      0    189.2   0.00   0.00   0.41   1.95   2.27   2.22   0.30   0.00   0.00   0.00   0.00   0.00   0.00      0      0      0       0      13
 1991 258    47    44    9.0      2   0.68    361     14      0    370    375      0    0.0  0.000      0      0  0.000  0.000  0.002  0.000   3.82   0.00   0.00      0      0    188.2   0.00   0.00   0.42   1.96   2.30   2.26   0.31   0.00   0.00   0.00   0.00   0.00   0.00      0      0      0       0      13
 1991 259    48    45   10.0      2   0.74    405     14      0    397    419      0    0.0  0.000      0      0  0.000  0.000  0.000  0.000   3.41   0.00   0.00      0      0    183.7   0.00   0.00   0.43   2.03   2.45   2.43   0.37   0.00   0.00   0.00   0.00   0.00   0.00      0      0      0       0      14
 1991 260    49    46   10.0      2   0.81    448     14      0    403    462      0    0.0  0.000      0      0  0.000  0.000  0.000  0.137   3.78   0.00   0.00      0      0    179.9   0.00   0.00   0.45   2.04   2.48   2.47   0.39   0.00   0.00   0.00   0.00   0.00   0.00      0      0      0       0      16
 1991 261    50    47   10.0      3   0.85    484     14      0    481    498      0    0.0  0.000      0      0  0.000  0.000  0.022  0.186   3.68   0.00   0.00      0      0    175.7   0.00   0.00   0.46   1.92   2.65   2.85   0.60   0.00   0.00   0.00   0.00   0.00   0.00      0      0      0       0      18
 1991 262    51    48   10.0      3   0.88    509     14      0    568    523      0    0.0  0.000      0      0  0.000  0.000  0.022  0.149   3.60   0.00   0.00      0      0    173.6   0.00   0.00   0.46   1.85   2.91   3.34   0.83   0.02   0.00   0.00   0.00   0.00   0.00      0      0      0       0      21
 1991 263    52    49   11.0      3   0.94    550     14      0    616    565      0    0.0  0.000      0      0  0.000  0.000  0.022  0.038   3.56   0.00   0.00      0      0    170.8   0.00   0.00   0.47   1.80   3.03   3.59   0.95   0.04   0.00   0.00   0.00   0.00   0.00      0      0      0       0      24
 1991 264    53    50   11.0      3   1.03    616     15      0    643    631      0    0.0  0.000      0      0  0.000  0.000  0.022  0.003   3.52   0.00   0.00      0      0    167.1   0.00   0.00   0.49   1.77   3.09   3.72   1.01   0.06   0.00   0.00   0.00   0.00   0.00      0      0      0       0      27
 1991 265    54    51   11.0      3   1.08    658     16      0    741    674      0    0.0  0.000      0      0  0.000  0.000  0.022  0.001   3.50   0.00   0.00      0      0    164.7   0.00   0.00   0.50   1.77   3.43   4.00   1.28   0.14   0.00   0.00   0.00   0.00   0.00      0      0      0       0      30
 1991 266    55    52   11.0      3   1.02    678     17      0    824    694      0    0.0  0.000      0      0  0.000  0.000  0.022  0.001   3.52   0.00   0.00      0      0    151.0   0.00   0.00   0.50   1.79   3.72   4.00   1.52   0.21   0.00   0.00   0.00   0.00   0.00      0      0      0       0      34
 1991 267    56    53   11.0      3   1.05    705     18      0    929    723      0    0.0  0.000      0      0  0.000  0.000  0.022  0.001   3.48   0.00   0.00      0      0    148.6   0.00   0.00   0.51   1.82   4.00   4.00   1.82   0.32   0.00   0.00   0.00   0.00   0.00      0      0      0       0      38
 1991 268    57    54   11.0      3   1.10    749     19      0   1026    768      0    0.0  0.000      0      0  0.000  0.000  0.022  0.001   3.45   0.00   0.00      0      0    147.3   0.00   0.00   0.52   1.86   4.00   4.00   2.10   0.43   0.00   0.00   0.00   0.00   0.00      0      0      0       0      42
 1991 269    58    55   12.0      3   1.18    807     22      0   1127    829      0    0.0  0.000      0      0  0.000  0.000  0.022  0.000   3.43   0.00   0.00      0      0    145.8   0.00   0.00   0.53   1.92   4.00   4.00   2.39   0.56   0.00   0.00   0.00   0.00   0.00      0      0      0       0      48
 1991 270    59    56   12.0      3   1.30    906     29      0   1184    935      0    0.0  0.000      0      0  0.000  0.000  0.022  0.000   3.39   0.00   0.00      0      0    143.7   0.00   0.00   0.54   1.96   4.00   4.00   2.56   0.66   0.00   0.00   0.00   0.00   0.00      0      0      0       0      53
 1991 271    60    57   12.0      3   1.34    941     32      0   1283    974      0    0.0  0.000      0      0  0.000  0.000  0.022  0.000   3.40   0.00   0.00      0      0    142.7   0.00   0.00   0.55   2.02   4.00   4.00   2.86   0.84   0.00   0.00   0.00   0.00   0.00      0      0      0       0      59
 1991 272    61    58   12.0      3   1.39    979     36      0   1395   1015      0    0.0  0.000      0      0  0.000  0.000  0.022  0.000   3.37   0.00   0.00      0      0    141.6   0.00   0.00   0.55   2.08   4.00   4.00   3.20   1.05   0.00   0.00   0.00   0.00   0.00      0      0      0       0      66
 1991 273    62    59   12.0      3   1.45   1035     42      0   1509   1077      0    0.0  0.000      0      0  0.000  0.000  0.022  0.000   3.34   0.00   0.00      0      0    140.4   0.00   0.00   0.56   2.14   4.00   4.00   3.55   1.30   0.00   0.00   0.00   0.00   0.00      0      0      0       0      73
 1991 274    63    60   13.0      3   1.50   1074     46      0   1613   1120      0    0.0  0.000      0      0  0.000  0.000  0.022  0.000   3.33   0.00   0.00      0      0    139.4   0.00   0.00   0.57   2.20   4.00   4.00   3.89   1.54   0.00   0.00   0.00   0.00   0.00      0      0      0       0      80
 1991 275    64    61   13.0      3   1.54   1110     51      0   1731   1161      0    0.0  0.000      0      0  0.000  0.000  0.022  0.000   3.32   0.00   0.00      0      0    138.5   0.00   0.00   0.57   2.20   4.00   4.00   4.00   1.83   0.00   0.00   0.00   0.00   0.00      0      0      0       0      88
 1991 276    65    62   13.0      3   1.51   1149     56      0   1866   1206      0    0.0  0.000      0      0  0.000  0.000  0.022  0.000   3.30   0.00   0.00      0      0    131.3   0.00   0.00   0.58   2.21   4.00   4.00   4.00   2.19   0.00   0.00   0.00   0.00   0.00      0      0      0       0      97
 1991 277    66    63   13.0      3   1.57   1201     64      0   1969   1265      0    0.0  0.000      0      0  0.000  0.000  0.022  0.000   3.27   0.00   0.00      0      0    130.5   0.00   0.00   0.59   2.21   4.00   4.00   4.00   2.49   0.00   0.00   0.00   0.00   0.00      0      0      0       0     106
 1991 278    67    64   13.0      3   1.60   1235     70      0   1975   1305      0    0.0  0.000      0      0  0.000  0.000  0.022  0.000   3.31   0.00   0.00      0      0    129.9   0.00   0.00   0.59   2.20   4.00   4.00   4.00   2.53   0.00   0.00   0.00   0.00   0.00      0      0      0       0     116
 1991 279    68    65   13.0      3   1.62   1251     73      0   2005   1324      0    0.0  0.000      0      0  0.000  0.000  0.022  0.000   3.31   0.00   0.00      0      0    129.4   0.00   0.00   0.60   2.19   4.00   4.00   4.00   2.64   0.00   0.00   0.00   0.00   0.00      0      0      0       0     126
 1991 280    69    66   13.0      3   1.58   1269     76      0   2046   1346      0    0.0  0.000      0      0  0.000  0.000  0.022  0.000   3.29   0.00   0.00      0      0    124.1   0.00   0.00   0.60   2.06   3.81   3.98   3.92   2.65   0.00   0.00   0.00   0.00   0.00      0      0      0       0     136
 1991 281    70    67   13.0      3   1.54   1295     81      0   2153   1377      0    0.0  0.000      0      0  0.000  0.000  0.022  0.137   3.27   0.00   0.00      0      0    118.5   0.00   0.00   0.60   2.01   3.84   4.00   4.00   2.99   0.00   0.00   0.00   0.00   0.00      0      0      0       0     146
 1991 282    71    68   13.0      3   1.59   1347     92      0   2264   1440      0    0.0  0.000      0      0  0.000  0.000  0.022  0.056   3.22   0.00   0.00      0      0    118.2   0.00   0.00   0.61   2.00   3.92   4.00   4.00   3.39   0.01   0.00   0.00   0.00   0.00      0      0      0       0     157
 1991 283    72    69   14.0      3   1.66   1409    107      0   2401   1516      0    0.0  0.000      0      0  0.000  0.000  0.022  0.000   3.20   0.00   0.00      0      0    117.9   0.00   0.00   0.62   1.99   4.00   4.00   4.00   3.91   0.04   0.00   0.00   0.00   0.00      0      0      0       0     168
 1991 284    73    70   14.0      3   1.75   1485    127      0   2530   1612      0    0.0  0.000      0      0  0.000  0.000  0.022  0.000   3.18   0.00   0.00      0      0    117.5   0.00   0.00   0.63   1.99   4.00   4.00   4.00   4.00   0.08   0.00   0.00   0.00   0.00      0      0      0       0     180
 1991 285    74    71   14.0      3   1.87   1596    161      0   2640   1757      0    0.0  0.000      0      0  0.000  0.000  0.022  0.001   3.14   0.00   0.00      0      0    117.0   0.00   0.00   0.64   2.00   3.97   4.00   4.00   4.00   0.15   0.00   0.00   0.00   0.00      0      0      0       0     193
 1991 286    75    72   15.0      3   2.05   1760    225      0   2693   1984      0    0.0  0.000      0      0  0.000  0.000  0.022  0.002   3.09   0.00   0.00      0      0    116.3   0.00   0.00   0.66   1.99   3.94   4.00   4.00   4.00   0.21   0.00   0.00   0.00   0.00      0      0      0       0     206
 1991 287    76    73   15.0      3   2.18   1882    282      0   2689   2165      0    0.0  0.000      0      0  0.000  0.000  0.022  0.002   3.03   0.00   0.00      0      0    115.7   0.00   0.00   0.68   1.97   3.89   3.95   3.99   4.00   0.22   0.00   0.00   0.00   0.00      0      0      0       0     220
 1991 288    77    74   15.0      3   2.26   1959    323      0   2682   2282      0    0.0  0.000      0      0  0.000  0.000  0.022  0.004   3.00   0.00   0.00      0      0    115.2   0.00   0.00   0.70   1.93   3.82   3.88   3.94   3.95   0.23   0.00   0.00   0.00   0.00      0      0      0       0     233
 1991 289    78    75   16.0      3   2.32   2020    358      0   2687   2378      0    0.0  0.000      0      0  0.000  0.000  0.022  0.019   2.95   0.00   0.00      0      0    114.7   0.00   0.00   0.71   1.81   3.58   3.63   3.71   3.77   0.26   0.00   0.00   0.00   0.00      0      0      0       0     246
 1991 290    79    76   16.0      3   2.34   2044    373      0   2762   2417      0    0.0  0.000      0      0  0.000  0.000  0.022  0.399   2.96   0.00   0.00      0      0    114.3   0.00   0.00   0.71   1.79   3.48   3.53   3.71   3.93   0.49   0.00   0.00   0.00   0.00      0      0      0       0     260
 1991 291    80    77   16.0      3   2.39   2103    410      0   2934   2513      0    0.0  0.000      0      0  0.000  0.000  0.022  0.139   2.91   0.00   0.00      0      0    113.8   0.00   0.00   0.72   1.91   3.54   3.59   3.89   4.00   1.04   0.00   0.00   0.00   0.00      0      0      0       0     274
 1991 292    81    78   16.0      3   2.49   2194    472      0   3078   2667      0    0.0  0.000      0      0  0.000  0.000  0.022  0.036   2.81   0.00   0.00      0      0    113.3   0.00   0.00   0.73   2.06   3.66   3.71   3.94   4.00   1.59   0.00   0.00   0.00   0.00      0      0      0       0     288
 1991 293    82    79   16.0      3   2.59   2295    547      0   3213   2843      0    0.0  0.000      0      0  0.000  0.000  0.022  0.010   2.70   0.00   0.00      0      0    112.7   0.00   0.00   0.74   2.25   3.84   3.89   3.99   4.00   2.14   0.00   0.00   0.00   0.00      0      0      0       0     304
 1991 294    83    80   17.0      3   2.72   2427    657      0   3299   3084      0    0.0  0.000      0      0  0.000  0.000  0.022  0.000   2.54   0.00   0.00      0      0    112.0   0.00   0.00   0.76   2.42   4.00   4.00   4.00   4.00   2.54   0.00   0.00   0.00   0.00      0      0      0       0     320
 1991 295    84    81   17.0      3   2.88   2588    809      0   3313   3397      0    0.0  0.000      0      0  0.000  0.000  0.024  0.000   2.35   0.00   0.00      0      0    111.2   0.00   0.00   0.78   2.47   4.00   4.00   4.00   4.00   2.64   0.00   0.00   0.00   0.00      0      0      0       0     336
 1991 296    85    82   17.0      3   2.94   2658    878      0   3304   3536      0    0.0  0.000      0      0  0.000  0.000  0.030  0.000   2.30   0.00   0.00      0      0    110.6   0.00   0.00   0.78   2.47   4.00   4.00   3.99   3.99   2.65   0.00   0.00   0.00   0.00      0      0      0       0     353
 1991 297    86    83   18.0      3   2.98   2711    934      0   3303   3645      0    0.0  0.000      0      0  0.000  0.000  0.041  0.000   2.26   0.00   0.00      0      0    109.8   0.00   0.00   0.79   2.50   4.00   4.00   3.98   3.98   2.68   0.00   0.00   0.00   0.00      0      0      0       0     369
 1991 298    87    84   18.0      3   3.03   2773   1003      0   3293   3776      0    0.0  0.000      0      0  0.000  0.000  0.044  0.000   2.22   0.00   0.00      0      0    109.1   0.00   0.00   0.80   2.51   4.00   4.00   3.97   3.97   2.68   0.00   0.00   0.00   0.00      0      0      0       0     386
 1991 299    88    85   18.0      3   3.21   2977   1178      0   3298   4156      0    0.0  0.000      0      0  0.000  0.000  0.044  0.000   2.04   0.00   0.00      0      0    108.0   0.00   0.00   0.82   2.57   4.00   4.00   3.99   3.98   2.70   0.00   0.00   0.00   0.00      0      0      0       0     402
 1991 300    89    86   18.0      3   3.29   3071   1290      0   3293   4361      0    0.0  0.000      0      0  0.000  0.000  0.046  0.000   1.96   0.00   0.00      0      0    107.1   0.00   0.00   0.83   2.61   4.00   4.00   3.98   3.98   2.69   0.00   0.00   0.00   0.00      0      0      0       0     419
 1991 301    90    87   19.0      3   3.32   3125   1369      0   3284   4494      0    0.0  0.000      0      0  0.000  0.000  0.061  0.000   1.92   0.00   0.00      0      0    106.2   0.00   0.00   0.84   2.62   4.00   4.00   3.98   3.97   2.69   0.00   0.00   0.00   0.00      0      0      0       0     435
[...]
 1992 322   111   108   21.0      3   3.48   4078   2969      0   5096   7047      0    0.0  0.000      0      0  0.000  0.000  0.105  0.000   1.49   0.00   0.00      0      0     85.3   0.00   0.00   0.96   4.00   4.00   4.00   4.00   4.00   2.89   1.60   0.00   0.00   0.00      0      0      0       0     688
 1992 323   112   109   21.0      3   3.46   4111   3063      0   5263   7174      0    0.0  0.000      0      0  0.000  0.000  0.106  0.000   1.48   0.00   0.00      0      0     84.2   0.00   0.00   0.96   4.00   4.00   4.00   4.00   4.00   3.05   2.08   0.00   0.00   0.00      0      0      0       0     713
 1992 324   113   110   21.0      3   3.46   4161   3207      0   5403   7367      0    0.0  0.000      0      0  0.000  0.000  0.105  0.000   1.45   0.00   0.00      0      0     83.2   0.00   0.00   0.97   4.00   4.00   4.00   4.00   4.00   3.19   2.47   0.00   0.00   0.00      0      0      0       0     740
 1992 325   114   111   21.0      3   3.47   4221   3378      0   5458   7599      0    0.0  0.000      0      0  0.000  0.000  0.105  0.000   1.42   0.00   0.00      0      0     82.3   0.00   0.00   0.99   4.00   4.00   4.00   4.00   4.00   3.26   2.63   0.00   0.00   0.00      0      0      0       0     767
 1992 326   115   112   21.0      3   3.46   4257   3481      0   5438   7737      0    0.0  0.000      0      0  0.000  0.000  0.109  0.000   1.40   0.00   0.00      0      0     81.2   0.00   0.00   1.00   4.00   4.00   4.00   3.99   3.99   3.25   2.63   0.00   0.00   0.00      0      0      0       0     794
 1992 327   116   113   21.0      3   3.43   4284   3560      0   5584   7844      0    0.0  0.000      0      0  0.000  0.000  0.114  0.000   1.39   0.00   0.00      0      0     80.2   0.00   0.00   1.00   4.00   4.00   4.00   4.00   4.00   3.41   2.85   0.00   0.00   0.00      0      0      0       0     821
 1992 328   117   114   21.0      3   3.41   4308   3628      0   5704   7936      0    0.0  0.000      0      0  0.000  0.000  0.117  0.000   1.39   0.00   0.00      0      0     79.1   0.00   0.00   1.01   4.00   4.00   4.00   4.00   4.00   3.56   2.95   0.00   0.00   0.00      0      0      0       0     849
 1992 329   118   115   21.0      3   3.40   4352   3753      0   5801   8105      0    0.0  0.000      0      0  0.000  0.000  0.117  0.000   1.36   0.00   0.00      0      0     78.1   0.00   0.00   1.02   4.00   4.00   4.00   4.00   4.00   3.69   3.00   0.00   0.00   0.00      0      0      0       0     877
 1992 330   119   116   21.0      3   3.39   4401   3892      0   5871   8293      0    0.0  0.000      0      0  0.000  0.000  0.116  0.000   1.34   0.00   0.00      0      0     77.1   0.00   0.00   1.03   4.00   4.00   4.00   4.00   4.00   3.78   3.05   0.00   0.00   0.00      0      0      0       0     906
 1992 331   120   117   21.0      3   3.39   4452   4035      0   5910   8487      0    0.0  0.000      0      0  0.000  0.000  0.118  0.000   1.32   0.00   0.00      0      0     76.1   0.00   0.00   1.04   4.00   4.00   4.00   4.00   4.00   3.84   3.07   0.00   0.00   0.00      0      0      0       0     936
 1992 332   121   118   21.0      4   3.34   4406   3413      0   6053   8623      0    0.0  0.000    804      0  0.000  0.000  0.121  0.000   1.43   0.00   0.09      0    804     75.8   0.00   0.00   1.05   4.00   4.00   4.00   4.00   4.00   4.00   3.18   0.00   0.00   0.00      0      0      0       0     965
 1992 333   122   119   21.0      4   3.29   4358   3467      0   6111   8764      0    0.0  0.000    939      0  0.000  0.000  0.121  0.000   1.44   0.00   0.11      0    939     75.5   0.00   0.00   1.06   4.00   4.00   4.00   4.00   4.00   4.00   3.23   0.00   0.00   0.00      0      0      0       0     996
 1992 334   123   120   21.0      4   3.25   4306   3540      0   6130   8968      0    0.0  0.000   1122      0  0.000  0.000  0.091  0.000   1.44   0.00   0.13      0   1122     75.5   0.00   0.00   1.08   4.00   4.00   4.00   4.00   4.00   4.00   3.25   0.00   0.00   0.00      0      0      0       0    1026
 1992 335   124   121   21.0      4   3.22   4251   3615      0   6167   9174      0    0.0  0.000   1308      0  0.000  0.000  0.085  0.000   1.44   0.00   0.14      0   1308     75.7   0.00   0.00   1.09   4.00   4.00   4.00   4.00   4.00   4.00   3.29   0.00   0.00   0.00      0      0      0       0    1057
 1992 336   125   122   21.0      4   3.18   4194   3669      0   6309   9304      0    0.0  0.000   1442      0  0.000  0.000  0.082  0.000   1.45   0.00   0.15      0   1442     75.9   0.00   0.00   1.10   4.00   4.00   4.00   4.00   4.00   4.00   3.40   0.12   0.00   0.00      0      0      0       0    1088
 1992 337   126   123   21.0      4   3.15   4135   3712      0   6474   9398      0    0.0  0.000   1551      0  0.000  0.000  0.079  0.000   1.46   0.00   0.17      0   1551     76.2   0.00   0.00   1.11   4.00   4.00   4.00   4.00   4.00   4.00   3.53   0.29   0.00   0.00      0      0      0       0    1119
 1992 338   127   124   21.0      4   3.12   4073   3765      0   6587   9522      0    0.0  0.000   1683      0  0.000  0.000  0.075  0.000   1.47   0.00   0.18      0   1683     76.7   0.00   0.00   1.12   4.00   4.00   4.00   4.00   4.00   4.00   3.62   0.44   0.00   0.00      0      0      0       0    1152
 1992 339   128   125   21.0      4   3.10   4009   3833      0   6711   9695      0    0.0  0.000   1853      0  0.000  0.000  0.069  0.000   1.48   0.00   0.19      0   1853     77.2   0.00   0.00   1.12   4.00   4.00   4.00   4.00   4.00   4.00   3.72   0.62   0.00   0.00      0      0      0       0    1185
 1992 340   129   126   21.0      4   3.07   3942   3900      0   6731   9863      0    0.0  0.000   2021      0  0.000  0.000  0.064  0.000   1.48   0.00   0.20      0   2021     77.9   0.00   0.00   1.13   4.00   4.00   4.00   4.00   4.00   4.00   3.74   0.68   0.00   0.00      0      0      0       0    1218
 1992 341   130   127   21.0      4   3.05   3871   3985      0   6780  10090      0    0.0  0.000   2234      0  0.000  0.000  0.060  0.000   1.49   0.00   0.22      0   2234     78.7   0.00   0.00   1.14   4.00   4.00   4.00   4.00   4.00   4.00   3.78   0.79   0.00   0.00      0      0      0       0    1252
 1992 342   131   128   21.0      4   3.03   3798   4054      0   6840  10256      0    0.0  0.000   2405      0  0.000  0.000  0.056  0.000   1.49   0.00   0.23      0   2405     79.7   0.00   0.00   1.15   4.00   4.00   4.00   4.00   4.00   4.00   3.83   0.90   0.00   0.00      0      0      0       0    1286
 1992 343   132   129   21.0      4   3.01   3722   4125      0   6915  10430      0    0.0  0.000   2583      0  0.000  0.000  0.052  0.000   1.50   0.00   0.25      0   2583     80.8   0.00   0.00   1.16   4.00   4.00   4.00   4.00   4.00   4.00   3.88   1.02   0.00   0.00      0      0      0       0    1320
 1992 344   133   130   21.0      4   2.99   3642   4199      0   6946  10609      0    0.0  0.000   2768      0  0.000  0.000  0.048  0.000   1.51   0.00   0.26      0   2768     82.1   0.00   0.00   1.17   4.00   4.00   4.00   4.00   4.00   4.00   3.91   1.09   0.00   0.00      0      0      0       0    1354
 1992 345   134   131   21.0      5   2.96   3642   4199    281   6942  10890   3731    7.5  0.026   3048      7  0.000  0.000  0.081  0.000   1.46   9.21   0.28      0   3048     81.2   0.00   0.00   1.18   4.00   4.00   4.00   4.00   4.00   4.00   3.91   1.11   0.00   0.00      0      0      0       0    1389
 1992 346   135   132   21.0      5   2.92   3642   4199    529   6947  11138   3731   14.2  0.047   3296      7  0.000  0.000  0.093  0.000   1.43  16.04   0.30      0   3296     80.3   0.00   0.00   1.19   4.00   4.00   4.00   4.00   4.00   4.00   3.92   1.14   0.00   0.00      0      0      0       0    1424
 1992 347   136   133   21.0      5   2.89   3642   4199    760   6983  11369   3731   20.4  0.067   3527      7  0.000  0.000  0.099  0.000   1.39  21.54   0.31      0   3527     79.3   0.00   0.00   1.20   4.00   4.00   4.00   4.00   4.00   4.00   3.96   1.18   0.00   0.00      0      0      0       0    1459
 1992 348   137   134   21.0      5   2.85   3642   4199   1040   7012  11648   3731   27.9  0.089   3807      7  0.000  0.000  0.103  0.000   1.35  27.31   0.33      0   3807     78.3   0.00   0.00   1.21   4.00   4.00   4.00   4.00   4.00   4.00   3.99   1.20   0.00   0.00      0      0      0       0    1494
 1992 349   138   135   21.0      5   2.81   3642   4199   1309   7033  11918   3731   35.1  0.110   4077      7  0.000  0.000  0.110  0.000   1.31  32.11   0.34      0   4077     77.2   0.00   0.00   1.22   4.00   4.00   4.00   4.00   4.00   4.00   4.00   1.21   0.00   0.00      0      0      0       0    1529
 1992 350   139   136   21.0      5   2.77   3642   4199   1509   7075  12118   3731   40.5  0.125   4277      7  0.000  0.000  0.118  0.000   1.28  35.29   0.35      0   4277     76.1   0.00   0.00   1.23   4.00   4.00   4.00   4.00   4.00   4.00   4.00   1.23   0.00   0.00      0      0      0       0    1564
 1992 351   140   137   21.0      5   2.73   3642   4199   1759   7082  12367   3731   47.1  0.142   4526      7  0.000  0.000  0.121  0.000   1.25  38.85   0.37      0   4526     74.9   0.00   0.00   1.24   4.00   4.00   4.00   4.00   4.00   4.00   4.00   1.24   0.00   0.00      0      0      0       0    1599
 1992 352   141   138   21.0      5   2.69   3642   4199   2038   7057  12647   3731   54.6  0.161   4806      7  0.000  0.000  0.127  0.000   1.21  42.41   0.38      0   4806     73.7   0.00   0.00   1.25   4.00   4.00   4.00   3.99   3.99   3.99   3.99   1.23   0.00   0.00      0      0      0       0    1635
 1992 353   142   139   21.0      5   2.64   3642   4199   2317   7073  12926   3731   62.1  0.179   5085      7  0.000  0.000  0.134  0.000   1.17  45.57   0.39      0   5085     72.5   0.00   0.00   1.25   4.00   4.00   4.00   4.00   4.00   4.00   4.00   1.25   0.00   0.00      0      0      0       0    1670
 1992 354   143   140   21.0      5   2.59   3642   4199   2597   7041  13206   3731   69.6  0.197   5365      7  0.000  0.000  0.142  0.000   1.13  48.41   0.41      0   5365     71.2   0.00   0.00   1.25   3.99   3.99   3.99   3.98   3.98   3.98   3.98   1.24   0.00   0.00      0      0      0       0    1705
 1992 355   144   141   21.0      5   2.55   3642   4199   2877   7063  13486   3731   77.1  0.213   5645      7  0.000  0.000  0.148  0.000   1.09  50.97   0.42      0   5645     69.9   0.00   0.00   1.25   4.00   4.00   4.00   4.00   4.00   4.00   4.00   1.26   0.00   0.00      0      0      0       0    1740
 1992 356   145   142   21.0      5   2.50   3642   4199   3157   7058  13766   3731   84.6  0.229   5924      7  0.000  0.000  0.156  0.000   1.05  53.28   0.43      0   5924     68.5   0.00   0.00   1.25   4.00   4.00   4.00   4.00   4.00   4.00   4.00   1.26   0.00   0.00      0      0      0       0    1776
 1992 357   146   143   21.0      5   2.44   3642   4093   3437   7022  13939   3731   92.1  0.247   6204      7  0.000  0.000  0.163  0.000   1.03  55.39   0.45      0   6204     67.1   0.00   0.00   1.25   4.00   4.00   4.00   4.00   4.00   4.00   4.00   1.26   0.00   0.00      0      0      0       0    1811
 1992 358   147   144   21.0      5   2.39   3642   3984   3716   6987  14111   3731   99.6  0.263   6484      7  0.000  0.000  0.171  0.000   1.01  57.32   0.46      0   6484     65.7   0.00   0.00   1.25   4.00   4.00   4.00   4.00   4.00   4.00   4.00   1.26   0.00   0.00      0      0      0       0    1846
 1992 359   148   145   21.0      5   2.34   3642   4055   3996   6988  14461   3731  107.1  0.276   6764      7  0.000  0.000  0.174  0.000   0.97  59.08   0.47      0   6764     64.3   0.00   0.00   1.25   4.00   4.00   4.00   4.00   4.00   4.00   4.00   1.27   0.00   0.00      0      0      0       0    1881
 1992 360   149   146   21.0      5   2.29   3642   4100   4248   6976  14758   3731  113.8  0.288   7015      7  0.000  0.000  0.177  0.000   0.93  60.55   0.48      0   7015     62.8   0.00   0.00   1.25   4.00   4.00   4.00   4.00   4.00   4.00   4.00   1.27   0.00   0.00      0      0      0       0    1916
 1992 361   150   147   21.0      5   2.23   3642   4199   4478   6998  15086   3731  120.0  0.297   7245      7  0.000  0.000  0.190  0.000   0.89  61.80   0.48      0   7245     61.3   0.00   0.00   1.25   4.00   4.00   4.00   4.00   4.00   4.00   4.00   1.29   0.00   0.00      0      0      0       0    1951
 1992 362   151   148   21.0      5   2.18   3642   4199   4707   7017  15316   3731  126.2  0.307   7475      7  0.000  0.000  0.199  0.000   0.87  62.98   0.49      0   7475     59.8   0.00   0.00   1.25   4.00   4.00   4.00   4.00   4.00   4.00   4.00   1.30   0.00   0.00      0      0      0       0    1986
 1992 363   152   149   21.0      5   2.12   3642   4199   4987   7014  15596   3731  133.7  0.320   7755      7  0.000  0.000  0.232  0.000   0.84  64.31   0.50      0   7755     58.2   0.00   0.00   1.25   4.00   4.00   4.00   4.00   4.00   4.00   4.00   1.31   0.00   0.00      0      0      0       0    2021
 1992 364   153   150   21.0      5   2.06   3642   4038   5267   6979  15715   3731  141.2  0.335   8035      7  0.000  0.000  0.258  0.000   0.83  65.55   0.51      0   8035     56.6   0.00   0.00   1.25   4.00   4.00   4.00   4.00   4.00   4.00   4.00   1.31   0.00   0.00      0      0      0       0    2056
 1992 365   154   151   21.0      5   2.00   3642   3895   5523   6944  15828   3731  148.0  0.349   8291      7  0.000  0.000  0.287  0.000   0.82  66.62   0.52      0   8291     55.0   0.00   0.00   1.25   4.00   4.00   4.00   4.00   4.00   4.00   4.00   1.31   0.00   0.00      0      0      0       0    2091
 1992 366   155   152   21.0      5   1.95   3642   3791   5739   6910  15940   3731  153.8  0.360   8507      7  0.000  0.000  0.289  0.000   0.81  67.47   0.53      0   8507     53.4   0.00   0.00   1.25   4.00   4.00   4.00   4.00   4.00   4.00   4.00   1.31   0.00   0.00      0      0      0       0    2126
 1993 001   156   153   21.0      5   1.89   3642   3669   5971   6875  16051   3731  160.0  0.372   8739      7  0.000  0.000  0.288  0.000   0.79  68.33   0.54      0   8739     51.9   0.00   0.00   1.25   4.00   4.00   4.00   4.00   4.00   4.00   4.00   1.31   0.00   0.00      0      0      0       0    2160
 1993 002   157   154   21.0      5   1.84   3642   3540   6208   6841  16158   3731  166.4  0.384   8976      7  0.000  0.000  0.301  0.211   0.78  69.17   0.56      0   8976     50.4   0.00   0.00   1.25   4.00   4.00   4.00   4.00   4.00   4.00   4.00   1.31   0.00   0.00      0      0      0       0    2195
 1993 003   158   155   21.0      5   1.78   3642   3403   6449   6807  16263   3731  172.8  0.397   9217      7  0.000  0.000  0.311  0.553   0.76  69.97   0.57      0   9217     48.9   0.00   0.00   1.25   4.00   4.00   4.00   4.00   4.00   4.00   4.00   1.31   0.00   0.00      0      0      0       0    2229
 1993 004   159   156   21.0      5   1.73   3642   3291   6729   6773  16430   3731  180.3  0.410   9497      7  0.000  0.000  0.319  0.552   0.74  70.86   0.58      0   9497     47.4   0.00   0.00   1.25   4.00   4.00   4.00   4.00   4.00   4.00   4.00   1.31   0.00   0.00      0      0      0       0    2263
 1993 005   160   157   21.0      5   1.67   3642   3266   7009   6739  16685   3731  187.8  0.420   9776      7  0.000  0.000  0.335  0.273   0.71  71.69   0.59      0   9776     46.0   0.00   0.00   1.25   4.00   4.00   4.00   4.00   4.00   4.00   4.00   1.31   0.00   0.00      0      0      0       0    2297
 1993 006   161   158   21.0      5   1.62   3642   3281   7289   6713  16980   3731  195.3  0.429  10056      7  0.000  0.000  0.354  0.074   0.68  72.48   0.59      0  10056     44.5   0.00   0.00   1.25   4.00   4.00   4.00   3.99   3.99   3.99   3.98   1.30   0.00   0.00      0      0      0       0    2330
 1993 007   162   159   21.0      5   1.57   3642   3123   7569   6679  17101   3731  202.8  0.443  10336      7  0.000  0.000  0.385  0.029   0.67  73.22   0.60      0  10336     43.1   0.00   0.00   1.25   4.00   4.00   4.00   3.99   3.99   3.99   3.98   1.30   0.00   0.00      0      0      0       0    2364
 1993 008   163   160   21.0      5   1.51   3642   3041   7848   6646  17300   3731  210.3  0.454  10616      7  0.000  0.000  0.427  0.185   0.65  73.93   0.61      0  10616     41.6   0.00   0.00   1.25   4.00   4.00   4.00   3.99   3.99   3.99   3.98   1.30   0.00   0.00      0      0      0       0    2397
 1993 009   164   161   21.0      5   1.46   3642   3045   8104   6614  17559   3731  217.2  0.462  10872      7  0.000  0.000  0.440  0.092   0.62  74.54   0.62      0  10872     40.1   0.00   0.00   1.25   3.99   3.99   3.99   3.97   3.97   3.97   3.97   1.30   0.00   0.00      0      0      0       0    2431
 1993 010   165   162   21.0      5   1.41   3642   3033   8384   6581  17827   3731  224.7  0.470  11152      7  0.000  0.000  0.463  0.036   0.60  75.18   0.63      0  11152     38.7   0.00   0.00   1.25   3.99   3.99   3.99   3.97   3.97   3.97   3.97   1.30   0.00   0.00      0      0      0       0    2464
 1993 011   166   163   21.0      5   1.36   3642   3004   8664   6548  18078   3731  232.2  0.479  11432      7  0.000  0.000  0.497  0.000   0.58  75.79   0.63      0  11432     37.2   0.00   0.00   1.25   3.99   3.99   3.99   3.97   3.97   3.97   3.97   1.30   0.00   0.00      0      0      0       0    2496
 1993 012   167   164   21.0      5   1.30   3642   2954   8944   6515  18308   3731  239.7  0.489  11712      7  0.000  0.000  0.527  0.000   0.57  76.37   0.64      0  11712     35.8   0.00   0.00   1.25   3.99   3.99   3.99   3.97   3.97   3.97   3.97   1.30   0.00   0.00      0      0      0       0    2529
 1993 013   168   165   21.0      5   1.25   3642   2857   9090   6483  18357   3731  243.6  0.495  11858      7  0.000  0.000  0.546  0.000   0.58  76.66   0.65      0  11858     34.4   0.00   0.00   1.25   3.99   3.99   3.99   3.97   3.97   3.97   3.97   1.30   0.00   0.00      0      0      0       0    2562
 1993 014   169   166   21.0      5   1.20   3642   2857   9202   6450  18469   3731  246.6  0.498  11969      7  0.000  0.000  0.538  0.000   0.57  76.88   0.65      0  11969     33.1   0.00   0.00   1.25   3.99   3.99   3.99   3.97   3.97   3.97   3.97   1.30   0.00   0.00      0      0      0       0    2594
 1993 015   170   167   21.0      5   1.20   3642   2857   9202   6450  18469   3731  246.6  0.498  11969      7  0.000  0.000  0.538  0.000   0.57  76.88   0.65      0  11969     33.1   0.00   0.00   1.25   3.99   3.99   3.99   3.97   3.97   3.97   3.97   1.30   0.00   0.00      0      0      0       0    2594
 1993 016   171   168   21.0      5   1.20   3642   2857   9202   6450  18469   3731  246.6  0.498  11969      7  0.000  0.000  0.538  0.000   0.57  76.88   0.65      0  11969     33.1   0.00   0.00   1.25   3.99   3.99   3.99   3.97   3.97   3.97   3.97   1.30   0.00   0.00      0      0      0       0    2594
 1993 017   172   169   21.0      5   1.20   3642   2857   9202   6450  18469   3731  246.6  0.498  11969      7  0.000  0.000  0.538  0.000   0.57  76.88   0.65      0  11969     33.1   0.00   0.00   1.25   3.99   3.99   3.99   3.97   3.97   3.97   3.97   1.30   0.00   0.00      0      0      0       0    2594
 1993 018   173   170   21.0      5   1.20   3642   2857   9202   6450  18469   3731  246.6  0.498  11969      7  0.000  0.000  0.538  0.000   0.57  76.88   0.65      0  11969     33.1   0.00   0.00   1.25   3.99   3.99   3.99   3.97   3.97   3.97   3.97   1.30   0.00   0.00      0      0      0       0    2594
