*SOIL NITROGEN DAILY OUTPUT FILE

*DSSAT Cropping System Model Ver. 4.0.2.000               Aug 02, 2016; 15:29:24

*RUN   1        : UYMZ                    
 MODEL          : MZCER040 - Maize           
 EXPERIMENT     : UYMZ0107 MZ    late to create DSS                             
 TREATMENT  1   : UYMZ                    

@YEAR DOY   DAS  NAPC  NI#M    NLCC   NIAD    NOAD   NITD   NHTD  NI1D  NI2D  NI3D  NI4D  NI5D  NI6D  NI7D  NI8D  NI9D  NI10  NH1D  NH2D  NH3D  NH4D  NH5D  NH6D  NH7D  NH8D  NH9D  NH10    NMNC    NITC    NDNC    NIMC    AMLC
 1990 211     0     0     0     0.0   99.1   16646   76.1   23.1  15.6  15.2  15.1   8.6   4.6   0.0   0.1   0.1   0.0   0.0   0.9   1.4   1.5   1.5   1.5  1.50  1.47  1.46  0.00  0.00    0.38    1.24    0.00    0.00    0.00
 1990 212     1     0     0     0.0   99.5   16645   77.1   22.4  16.0  15.3  15.2   8.6   4.6   0.0   0.1   0.1   0.0   0.0   0.6   1.3   1.4   1.4   1.4  1.51  1.43  1.41  0.00  0.00    0.76    2.31    0.00    0.00    0.00
 1990 213     2     0     0     0.0   99.9   16645   78.1   21.8  16.3  15.5  15.3   8.7   4.7   0.1   0.1   0.2   0.0   0.0   0.4   1.2   1.4   1.4   1.4  1.51  1.40  1.37  0.00  0.00    1.14    3.28    0.00    0.00    0.00
 1990 214     3     0     0     0.0  100.3   16644   79.0   21.3   5.6  16.0  18.8   8.8   4.7   0.1   0.2   0.2   0.0   0.0   0.2   1.1   1.4   1.3   1.3  1.51  1.37  1.33  0.00  0.00    1.55    4.20    0.00    0.00    0.00
 1990 215     4     3     3     0.0  103.6   16644   81.3   22.4   8.5  15.5  19.2   8.9   4.8   0.1   0.2   0.2   0.0   0.0   2.7   1.1   1.4   1.3   1.3  1.51  1.34  1.29  0.00  0.00    1.98    4.97    0.00    0.00    0.10
 1990 216     5     3     3     0.0  104.0   16644   83.0   21.0  10.0  15.5  19.3   9.0   4.8   0.1   0.3   0.3   0.0   0.0   1.0   1.0   1.4   1.2   1.3  1.52  1.31  1.25  0.00  0.00    2.46    6.71    0.00    0.00    0.21
 1990 217     6     3     3     0.0  104.4   16643   84.3   20.1  10.7  15.6  19.3   9.2   4.9   0.1   0.3   0.3   0.0   0.0   0.2   0.9   1.3   1.2   1.2  1.52  1.28  1.22  0.00  0.00    2.99    7.99    0.00    0.00    0.32
 1990 218     7     3     3     0.0  105.0   16642   85.4   19.6  10.9  15.8  19.4   9.3   4.9   0.1   0.3   0.4   0.0   0.0   0.0   0.9   1.3   1.2   1.2  1.52  1.25  1.18  0.00  0.00    3.57    9.04    0.00    0.00    0.37
 1990 219     8     3     3     0.0  105.6   16642   86.3   19.2  10.9  16.0  19.5   9.5   5.0   0.2   0.4   0.4   0.0   0.0   0.1   0.8   1.3   1.1   1.1  1.52  1.23  1.14  0.00  0.00    4.19   10.02    0.00    0.00    0.40
 1990 220     9     3     3     0.0  106.2   16641   87.4   18.8  11.1  16.1  19.6   9.6   5.1   0.2   0.4   0.4   0.0   0.0   0.1   0.7   1.3   1.1   1.1  1.53  1.20  1.11  0.00  0.00    4.84   11.04    0.00    0.00    0.41
 1990 221    10     3     3     0.0  106.8   16641   88.4   18.5  11.2  16.3  19.7   9.7   5.1   0.2   0.5   0.5   0.0   0.0   0.1   0.7   1.3   1.0   1.1  1.53  1.17  1.07  0.00  0.00    5.52   12.07    0.00    0.00    0.44
 1990 222    11     3     3     0.0  107.5   16640   89.4   18.1  11.4  16.4  19.7   9.9   5.2   0.2   0.5   0.5   0.0   0.0   0.1   0.6   1.3   1.0   1.0  1.53  1.14  1.04  0.00  0.00    6.19   13.06    0.00    0.00    0.45
 1990 223    12     3     3     0.0  107.9   16639   90.1   17.8  11.4  16.4  19.8  10.0   5.2   0.2   0.5   0.6   0.0   0.0   0.1   0.6   1.2   1.0   1.0  1.54  1.12  1.01  0.00  0.00    6.86   14.00    0.00    0.00    0.47
 1990 224    13     3     3     0.0  108.6   16639   91.1   17.5  11.6  16.5  19.9  10.1   5.3   0.3   0.6   0.6   0.0   0.0   0.1   0.6   1.2   0.9   1.0  1.54  1.09  0.98  0.00  0.00    7.53   14.94    0.00    0.00    0.49
 1990 225    14     3     3     0.0  109.3   16638   92.0   17.3  11.8  16.6  20.0  10.2   5.3   0.3   0.6   0.6   0.0   0.0   0.1   0.5   1.2   0.9   0.9  1.54  1.07  0.95  0.00  0.00    8.21   15.87    0.00    0.00    0.50
 1990 226    15     3     3     0.0  109.9   16637   92.9   17.0  12.0  16.7  20.1  10.3   5.4   0.3   0.6   0.7   0.0   0.0   0.1   0.5   1.2   0.9   0.9  1.54  1.04  0.92  0.00  0.00    8.88   16.82    0.00    0.00    0.50
 1990 227    16     3     3     0.0  110.6   16636   93.9   16.8   6.2  16.4  22.5  10.4   5.4   0.3   0.7   0.7   0.0   0.0   0.1   0.5   1.2   0.9   0.9  1.55  1.02  0.89  0.00  0.00    9.56   17.76    0.00    0.00    0.50
 1990 228    17     3     3     0.0  111.3   16636   94.6   16.7   6.3  16.1  22.7  10.6   5.5   0.3   0.7   0.7   0.0   0.0   0.2   0.6   1.2   0.8   0.9  1.55  1.00  0.86  0.00  0.00   10.25   18.47    0.00    0.00    0.52
 1990 229    18     3     3     0.0  111.9   16635   95.3   16.6   6.5  15.9  22.7  10.8   5.5   0.3   0.7   0.8   0.0   0.0   0.1   0.7   1.2   0.8   0.9  1.55  0.98  0.84  0.00  0.00   10.90   19.23    0.00    0.00    0.56
 1990 230    19     3     3     0.0  112.4   16635   96.0   16.4   6.8  15.9  22.7  11.0   5.6   0.4   0.8   0.8   0.0   0.0   0.1   0.6   1.2   0.8   0.8  1.55  0.96  0.81  0.00  0.00   11.51   20.02    0.00    0.00    0.57
 1990 231    20     3     3     0.0  112.9   16634   96.7   16.2   7.2  15.8  22.7  11.2   5.6   0.4   0.8   0.8   0.0   0.0   0.1   0.6   1.2   0.8   0.8  1.56  0.94  0.79  0.00  0.00   12.09   20.77    0.00    0.00    0.59
 1990 232    21     3     3     0.0  113.4   16633   97.4   16.0   7.5  15.8  22.7  11.3   5.7   0.4   0.8   0.8   0.0   0.0   0.1   0.6   1.2   0.8   0.8  1.56  0.92  0.77  0.00  0.00   12.65   21.48    0.00    0.00    0.61
 1990 233    22     3     3     0.0  113.8   16633   97.9   15.8   7.8  15.7  22.6  11.5   5.7   0.4   0.9   0.9   0.0   0.0   0.1   0.6   1.2   0.8   0.8  1.56  0.90  0.75  0.00  0.00   13.22   22.20    0.00    0.00    0.63
 1990 234    23     3     3     0.0  114.1   16632   98.4   15.7   8.0  15.6  22.6  11.6   5.7   0.4   0.9   0.9   0.0   0.0   0.1   0.6   1.2   0.7   0.8  1.56  0.89  0.73  0.00  0.00   13.81   22.92    0.00    0.00    0.65
 1990 235    24     3     3     0.0  114.4   16632   98.9   15.5   8.2  15.6  22.5  11.7   5.8   0.5   0.9   0.9   0.0   0.0   0.1   0.6   1.2   0.7   0.8  1.57  0.87  0.70  0.00  0.00   14.38   23.61    0.00    0.00    0.67
 1990 236    25     3     3     0.0  114.6   16631   99.2   15.4   8.4  15.5  22.5  11.8   5.8   0.5   0.9   0.9   0.0   0.0   0.1   0.5   1.2   0.7   0.8  1.57  0.85  0.69  0.00  0.00   14.93   24.27    0.00    0.00    0.68
 1990 237    26     3     3     0.0  115.0   16631   99.8   15.3   8.6  15.5  22.5  11.9   5.8   0.5   1.0   1.0   0.0   0.0   0.1   0.5   1.2   0.7   0.7  1.57  0.84  0.67  0.00  0.00   15.45   24.91    0.00    0.00    0.70
 1990 238    27     3     3     0.0  115.4   16630  100.3   15.1   8.8  15.4  22.5  12.0   5.9   0.5   1.0   1.0   0.0   0.0   0.1   0.5   1.1   0.7   0.7  1.57  0.82  0.65  0.00  0.00   15.98   25.54    0.00    0.00    0.72
 1990 239    28     3     3     0.0  115.5   16630  100.5   15.0   3.5  11.6  22.2  15.3   6.6   0.5   1.0   1.0   0.0   0.0   0.1   0.5   1.1   0.7   0.7  1.57  0.81  0.63  0.00  0.00   16.53   26.19    0.00    0.00    0.74
 1990 240    29     3     3     0.0  115.6   16629  100.3   15.2   3.3  11.3  21.7  15.1   7.3   0.5   1.0   1.0   0.0   0.0   0.1   0.6   1.2   0.7   0.7  1.58  0.80  0.61  0.00  0.00   17.08   26.50    0.00    0.00    0.75
 1990 241    30     3     3     0.0  115.6   16628  100.2   15.4   3.3  11.1  21.1  14.8   7.7   0.7   1.1   1.0   0.0   0.0   0.1   0.7   1.3   0.8   0.7  1.58  0.78  0.60  0.00  0.00   17.61   26.86    0.00    0.00    0.75
 1990 242    31     3     3     0.0  116.0   16628  100.6   15.5   3.7  11.0  21.0  14.7   7.8   0.8   1.1   1.1   0.0   0.0   0.1   0.6   1.3   0.8   0.7  1.58  0.77  0.58  0.00  0.00   18.12   27.27    0.00    0.00    0.76
 1990 243    32     3     3     0.0  116.5   16627  100.9   15.7   4.1  11.0  21.0  14.5   7.9   0.8   1.1   1.1   0.0   0.0   0.1   0.6   1.4   0.8   0.7  1.59  0.77  0.57  0.00  0.00   18.62   27.60    0.00    0.00    0.76
 1990 244    33     3     3     0.0  116.9   16627  101.2   15.7   4.4  11.0  21.1  14.5   8.0   0.8   1.1   1.1   0.0   0.0   0.1   0.6   1.4   0.8   0.8  1.61  0.78  0.57  0.00  0.00   19.05   27.97    0.02    0.00    0.76
 1990 245    34     3     3     0.0  117.2   16627  101.4   15.8   4.6  11.0  21.1  14.5   8.0   0.9   1.1   1.1   0.0   0.0   0.1   0.6   1.4   0.8   0.8  1.62  0.78  0.56  0.00  0.00   19.45   28.32    0.03    0.00    0.77
 1990 246    35     3     3     0.0  117.6   16626  101.8   15.8   4.8  11.0  21.1  14.5   8.0   0.9   1.1   1.1   0.0   0.0   0.1   0.6   1.3   0.8   0.8  1.63  0.78  0.56  0.00  0.00   19.84   28.66    0.04    0.00    0.77
 1990 247    36     3     3     0.0  118.0   16626  102.1   15.9   5.1  11.0  21.2  14.5   8.0   0.9   1.1   1.1   0.0   0.0   0.1   0.5   1.3   0.9   0.8  1.65  0.78  0.56  0.00  0.00   20.26   29.00    0.04    0.00    0.77
 1990 248    37     3     3     0.0  118.3   16625  102.4   15.9   5.4  11.1  21.2  14.6   8.0   0.9   1.1   1.1   0.0   0.0   0.1   0.5   1.3   0.8   0.8  1.66  0.79  0.55  0.00  0.00   20.64   29.38    0.05    0.00    0.77
 1990 249    38     3     3     0.0  118.6   16625  102.7   15.9   5.6  11.1  21.1  14.6   8.0   0.9   1.1   1.1   0.0   0.0   0.1   0.5   1.3   0.8   0.8  1.67  0.79  0.55  0.00  0.00   21.06   29.78    0.05    0.00    0.78
 1990 250    39     3     3     0.0  118.6   16625  102.7   15.9   5.1  11.4  21.0  14.6   8.0   0.9   1.2   1.1   0.0   0.0   0.1   0.5   1.3   0.8   0.8  1.68  0.79  0.55  0.00  0.00   21.51   30.20    0.06    0.00    0.78
 1990 251    40     3     3     0.0  119.0   16624  103.0   16.0   3.1   9.8  20.8  15.8   8.5   1.0   1.2   1.1   0.0   0.0   0.2   0.5   1.3   0.8   0.9  1.70  0.80  0.55  0.00  0.00   21.99   30.61    0.06    0.00    0.78
 1990 252    41     3     3     0.2  119.1   16624  102.8   16.2   3.2   9.6  20.3  15.4   8.8   1.2   1.2   1.1   0.0   0.0   0.1   0.6   1.3   0.8   0.9  1.71  0.80  0.54  0.00  0.00   22.45   30.79    0.09    0.00    0.78
 1990 253    42     3     3     0.4  119.3   16623  102.7   16.6   3.4   9.4  19.9  15.1   9.0   1.4   1.2   1.2   0.0   0.0   0.1   0.6   1.4   0.8   0.9  1.72  0.80  0.54  0.00  0.00   22.96   30.98    0.11    0.00    0.79
 1990 254    43     3     3     0.4  119.0   16623  102.2   16.7   2.1   7.8  18.4  15.6  10.1   1.7   1.2   1.2   0.0   0.0   0.1   0.6   1.4   0.9   0.9  1.74  0.80  0.54  0.00  0.00   23.50   31.31    0.12    0.00    0.79
 1990 255    44     3     3     0.7  118.3   16622  101.2   17.1   2.0   7.5  17.7  15.1  10.1   2.0   1.3   1.2   0.0   0.0   0.2   0.7   1.5   0.9   0.9  1.75  0.81  0.54  0.00  0.00   24.08   31.45    0.22    0.00    0.79
 1990 256    45     3     3     0.9  117.5   16621  100.1   17.4   2.2   7.3  17.1  14.8  10.1   2.2   1.3   1.2   0.0   0.0   0.1   0.8   1.6   0.9   0.9  1.77  0.81  0.53  0.00  0.00   24.64   31.71    0.48    0.00    0.80
 1990 257    46     3     3     1.0  116.8   16621   99.3   17.5   2.4   7.1  16.6  14.6  10.0   2.3   1.4   1.2   0.0   0.0   0.1   0.7   1.6   0.9   1.0  1.78  0.82  0.53  0.00  0.00   25.20   32.08    0.60    0.00    0.80
 1990 258    47     3     3     1.0  117.1   16620   99.6   17.5   2.7   7.1  16.7  14.5  10.0   2.3   1.4   1.2   0.0   0.0   0.1   0.7   1.6   1.0   1.0  1.79  0.82  0.53  0.00  0.00   25.70   32.56    0.65    0.00    0.80
 1990 259    48     3     3     1.0  117.5   16620   99.9   17.6   3.0   7.2  16.7  14.5  10.0   2.4   1.4   1.2   0.0   0.0   0.1   0.6   1.5   1.0   1.0  1.81  0.82  0.53  0.00  0.00   26.17   33.00    0.68    0.00    0.81
 1990 260    49     3     3     1.0  117.6   16619  100.0   17.6   3.2   7.2  16.7  14.5  10.0   2.4   1.4   1.2   0.0   0.0   0.1   0.6   1.5   1.0   1.0  1.82  0.82  0.53  0.00  0.00   26.63   33.43    0.69    0.00    0.81
 1990 261    50     3     3     1.1  117.3   16619   99.8   17.5   1.6   5.7  15.3  14.9  11.1   2.7   1.5   1.2   0.0   0.0   0.1   0.6   1.4   1.0   1.0  1.83  0.83  0.52  0.00  0.00   27.11   33.94    0.70    0.00    0.81
 1990 262    51     3     3     1.4  116.8   16618   98.9   17.9   1.6   5.6  14.8  14.4  11.0   3.0   1.6   1.3   0.0   0.0   0.2   0.7   1.5   1.0   1.0  1.85  0.83  0.52  0.00  0.00   27.61   34.07    0.80    0.00    0.82
 1990 263    52     3     3     1.6  116.1   16618   98.0   18.1   1.7   5.4  14.3  14.0  10.9   3.2   1.6   1.3   0.0   0.0   0.1   0.7   1.5   1.0   1.1  1.86  0.83  0.52  0.00  0.00   28.13   34.30    0.86    0.00    0.82
 1990 264    53     3     3     1.7  116.0   16617   97.7   18.2   1.9   5.4  14.1  13.9  10.8   3.2   1.7   1.3   0.0   0.0   0.1   0.7   1.6   1.0   1.1  1.87  0.84  0.52  0.00  0.00   28.66   34.65    0.90    0.00    0.82
 1990 265    54     3     3     1.7  115.8   16617   97.6   18.2   2.0   5.4  13.9  13.8  10.8   3.3   1.7   1.3   0.0   0.0   0.1   0.6   1.5   1.0   1.1  1.89  0.84  0.52  0.00  0.00   29.18   35.15    0.93    0.00    0.83
 1990 266    55     3     3     1.8  115.0   16616   96.8   18.2   2.2   5.2  13.6  13.6  10.8   3.3   1.7   1.3   0.0   0.0   0.1   0.6   1.5   1.0   1.1  1.90  0.84  0.51  0.00  0.00   29.70   35.65    0.95    0.00    0.83
 1990 267    56     3     3     1.8  113.1   16616   95.0   18.1   2.2   5.0  12.8  13.4  10.8   3.3   1.7   1.3   0.0   0.0   0.1   0.6   1.4   1.0   1.1  1.91  0.84  0.51  0.00  0.00   30.21   36.11    0.97    0.00    0.83
 1990 268    57     3     3     1.8  112.3   16615   94.3   18.0   2.3   4.9  12.4  13.3  10.8   3.3   1.7   1.3   0.0   0.0   0.1   0.6   1.3   1.0   1.1  1.93  0.85  0.51  0.00  0.00   30.71   36.63    0.98    0.00    0.83
 1990 269    58     3     3     1.8  112.8   16615   94.8   18.0   2.5   5.0  12.5  13.4  10.8   3.3   1.8   1.3   0.0   0.0   0.1   0.6   1.3   1.0   1.1  1.94  0.85  0.51  0.00  0.00   31.20   37.13    0.99    0.00    0.84
 1990 270    59     3     3     1.8  113.3   16614   95.3   18.0   2.7   5.1  12.6  13.4  10.8   3.3   1.8   1.3   0.0   0.0   0.1   0.6   1.3   1.0   1.1  1.95  0.85  0.51  0.00  0.00   31.68   37.62    1.00    0.00    0.84
 1990 271    60     3     3     1.8  111.3   16614   93.5   17.9   2.7   4.9  11.9  13.2  10.8   3.3   1.8   1.3   0.0   0.0   0.1   0.5   1.2   0.9   1.1  1.96  0.85  0.50  0.00  0.00   32.19   38.13    1.01    0.00    0.84
 1990 272    61     3     3     1.8  111.2   16613   93.4   17.9   2.8   5.0  11.8  13.1  10.8   3.3   1.8   1.4   0.0   0.0   0.1   0.5   1.2   0.9   1.2  1.98  0.86  0.50  0.00  0.00   32.72   38.65    1.02    0.00    0.84
 1990 273    62     3     3     1.8  109.7   16613   91.9   17.8   2.8   4.8  11.2  12.9  10.9   3.3   1.8   1.4   0.0   0.0   0.1   0.5   1.2   0.9   1.2  1.99  0.86  0.50  0.00  0.00   33.29   39.20    1.03    0.00    0.85
 1990 274    63     3     3     1.8  108.1   16612   90.4   17.7   2.8   4.7  10.6  12.7  10.9   3.3   1.8   1.4   0.0   0.0   0.1   0.5   1.1   0.8   1.2  2.00  0.86  0.50  0.00  0.00   33.89   39.79    1.04    0.00    0.85
 1990 275    64     3     3     1.8  105.7   16612   88.2   17.5   2.7   4.4   9.8  12.3  10.9   3.4   1.8   1.4   0.0   0.0   0.1   0.5   1.1   0.8   1.1  2.02  0.86  0.50  0.00  0.00   34.52   40.49    1.04    0.00    0.85
 1990 276    65     3     3     1.8  103.2   16611   85.9   17.3   2.6   4.2   9.1  11.9  10.8   3.4   1.8   1.4   0.0   0.0   0.1   0.5   1.0   0.8   1.1  2.03  0.87  0.50  0.00  0.00   35.15   41.17    1.05    0.00    0.86
 1990 277    66     3     3     1.8  100.9   16610   83.7   17.2   2.5   4.0   8.5  11.6  10.6   3.4   1.8   1.4   0.0   0.0   0.1   0.5   1.0   0.8   1.0  2.04  0.87  0.49  0.00  0.00   35.79   41.87    1.05    0.00    0.86
 1990 278    67     3     3     1.8   97.6   16610   80.6   17.0   2.4   3.7   7.7  11.2  10.4   3.4   1.8   1.4   0.0   0.0   0.1   0.4   0.9   0.7   1.0  2.06  0.87  0.49  0.00  0.00   36.45   42.59    1.06    0.00    0.86
 1990 279    68     3     3     1.8   96.3   16609   79.4   16.9   1.3   3.8   7.5  11.0  10.2   3.4   1.8   1.4   0.0   0.0   0.1   0.4   0.9   0.7   1.0  2.07  0.87  0.49  0.00  0.00   37.09   43.26    1.06    0.00    0.86
 1990 280    69     3     3     1.8   93.7   16608   76.7   17.0   1.1   3.5   7.0  10.5   9.9   3.4   1.8   1.4   0.0   0.0   0.2   0.5   0.9   0.7   0.9  2.09  0.88  0.49  0.00  0.00   37.77   43.73    1.07    0.00    0.87
 1990 281    70     3     3     1.8   91.8   16608   74.7   17.1   0.4   2.1   5.4   9.2  10.3   4.3   2.1   1.5   0.0   0.0   0.3   0.6   0.9   0.7   0.9  2.10  0.88  0.49  0.00  0.00   38.44   44.20    1.08    0.00    0.87
 1990 282    71     3     3     2.4   88.6   16607   71.2   17.4   0.4   1.8   4.8   8.3   9.6   4.4   2.3   1.5   0.0   0.0   0.3   0.7   0.9   0.7   0.9  2.12  0.88  0.49  0.00  0.00   39.07   44.35    1.15    0.00    0.87
 1990 283    72     3     3     2.7   84.2   16606   66.8   17.4   0.7   1.5   3.9   7.5   8.8   4.4   2.4   1.6   0.0   0.0   0.1   0.7   0.9   0.7   0.9  2.13  0.89  0.49  0.00  0.00   39.67   44.68    1.20    0.00    0.88
 1990 284    73     3     3     2.9   81.2   16606   63.9   17.3   0.7   1.4   3.3   7.0   8.2   4.4   2.4   1.6   0.0   0.0   0.1   0.7   0.9   0.7   0.9  2.15  0.89  0.48  0.00  0.00   40.29   45.19    1.22    0.00    0.89
 1990 285    74     3     3     3.0   79.5   16605   62.3   17.2   0.3   1.0   2.6   5.8   7.7   4.9   2.8   1.7   0.0   0.0   0.1   0.6   0.9   0.7   0.9  2.16  0.89  0.48  0.00  0.00   40.90   45.72    1.24    0.00    0.89
 1990 286    75     3     3     3.7   73.8   16605   56.6   17.2   0.4   0.7   1.8   4.7   6.6   4.8   2.9   1.8   0.0   0.0   0.1   0.7   0.8   0.7   0.9  2.16  0.90  0.48  0.00  0.00   41.49   45.89    1.39    0.00    0.89
 1990 287    76     3     3     4.1   70.0   16604   52.9   17.0   0.4   0.6   1.4   4.2   5.9   4.7   2.9   1.9   0.0   0.0   0.1   0.7   0.8   0.7   0.9  2.13  0.91  0.48  0.00  0.00   42.10   46.21    1.48    0.00    0.89
 1990 288    77     3     3     4.2   66.2   16603   49.7   16.5   0.4   0.6   1.1   3.8   5.4   4.4   2.9   1.9   0.0   0.0   0.1   0.6   0.7   0.7   0.8  2.06  0.91  0.48  0.00  0.00   42.72   46.73    1.52    0.00    0.90
 1990 289    78     3     3     4.3   62.6   16603   46.6   16.0   0.4   0.6   0.9   3.5   4.9   4.1   2.9   1.9   0.0   0.0   0.1   0.6   0.7   0.7   0.8  1.98  0.91  0.48  0.00  0.00   43.32   47.29    1.53    0.00    0.90
 1990 290    79     3     3     4.3   59.3   16602   43.8   15.4   0.4   0.5   0.7   3.2   4.5   3.8   2.9   1.9   0.0   0.0   0.1   0.5   0.7   0.6   0.8  1.90  0.91  0.48  0.00  0.00   43.92   47.81    1.54    0.00    0.90
 1990 291    80     3     3     4.3   57.8   16602   42.6   15.2   0.5   0.6   0.7   3.0   4.3   3.7   3.0   1.9   0.0   0.0   0.1   0.5   0.7   0.6   0.7  1.85  0.92  0.47  0.00  0.00   44.53   48.32    1.55    0.00    0.91
 1990 292    81     3     3     4.3   52.5   16601   38.2   14.4   0.3   0.4   0.4   2.5   3.7   3.2   3.0   1.9   0.0   0.0   0.1   0.5   0.7   0.6   0.7  1.70  0.92  0.47  0.00  0.00   45.14   48.84    1.55    0.00    0.91
 1990 293    82     3     3     4.3   49.0   16600   35.1   13.9   0.2   0.4   0.3   2.2   3.3   2.9   3.0   1.9   0.0   0.0   0.2   0.5   0.6   0.6   0.7  1.59  0.92  0.47  0.00  0.00   45.77   49.28    1.56    0.00    0.91
 1990 294    83     3     3     4.3   45.0   16600   31.8   13.2   0.4   0.3   0.3   1.8   2.7   2.5   3.0   2.0   0.0   0.0   0.1   0.6   0.6   0.6   0.6  1.45  0.92  0.47  0.00  0.00   46.40   49.79    1.56    0.00    0.91
 1990 295    84     3     3     4.3   40.6   16599   28.3   12.3   0.4   0.4   0.3   1.4   2.1   2.1   3.0   2.0   0.0   0.0   0.1   0.5   0.6   0.5   0.6  1.28  0.92  0.47  0.00  0.00   47.06   50.37    1.56    0.00    0.92
 1990 296    85     3     3     4.3   37.1   16599   25.4   11.7   0.4   0.4   0.3   1.1   1.7   1.7   3.0   2.0   0.0   0.0   0.1   0.5   0.6   0.5   0.6  1.15  0.93  0.47  0.00  0.00   47.73   50.93    1.56    0.00    0.92
 1990 297    86     3     3     4.3   34.3   16598   23.1   11.2   0.4   0.4   0.3   0.8   1.3   1.4   3.0   2.0   0.0   0.0   0.1   0.5   0.6   0.5   0.5  1.04  0.93  0.47  0.00  0.00   48.40   51.48    1.57    0.00    0.92
 1990 298    87     3     3     4.3   32.1   16597   21.3   10.8   0.4   0.4   0.3   0.7   1.1   1.2   3.0   2.0   0.0   0.0   0.1   0.5   0.6   0.5   0.5  0.95  0.93  0.46  0.00  0.00   49.06   52.02    1.57    0.00    0.93
 1990 299    88     3     3     4.3   30.3   16597   19.9   10.5   0.4   0.4   0.3   0.5   0.9   1.0   3.0   2.0   0.0   0.0   0.1   0.5   0.6   0.5   0.5  0.88  0.93  0.46  0.00  0.00   49.71   52.55    1.57    0.00    0.93
 1990 300    89     3     3     4.3   28.9   16596   18.8   10.2   0.4   0.4   0.3   0.4   0.7   0.8   3.0   2.0   0.0   0.0   0.1   0.5   0.6   0.5   0.5  0.82  0.93  0.46  0.00  0.00   50.36   53.09    1.57    0.00    0.93
 1990 301    90     3     3     4.3   27.8   16595   17.9   10.0   0.4   0.4   0.3   0.4   0.6   0.7   3.0   2.0   0.0   0.0   0.1   0.5   0.6   0.5   0.5  0.78  0.93  0.46  0.00  0.00   51.00   53.63    1.57    0.00    0.94
 1990 302    91     3     3     4.3   26.9   16595   17.1    9.8   0.4   0.4   0.3   0.3   0.5   0.6   3.0   2.0   0.0   0.0   0.1   0.5   0.6   0.5   0.5  0.74  0.94  0.46  0.00  0.00   51.63   54.16    1.57    0.00    0.94
 1990 303    92     3     3     4.3   26.2   16594   16.5    9.7   0.1   0.4   0.4   0.3   0.4   0.5   3.1   2.0   0.0   0.0   0.2   0.5   0.6   0.5   0.5  0.71  0.94  0.46  0.00  0.00   52.27   54.64    1.58    0.00    0.94
 1990 304    93     3     3     4.3   25.8   16593   16.2    9.7   0.4   0.3   0.3   0.3   0.3   0.4   3.1   2.0   0.0   0.0   0.1   0.6   0.6   0.5   0.5  0.69  0.94  0.46  0.00  0.00   52.97   55.15    1.58    0.00    0.94
 1990 305    94     3     3     4.3   25.5   16593   16.0    9.5   0.3   0.4   0.3   0.3   0.3   0.3   3.1   2.0   0.0   0.0   0.1   0.5   0.6   0.5   0.5  0.66  0.92  0.45  0.00  0.00   53.68   55.76    1.58    0.00    0.94
 1990 306    95     3     3     4.3   25.2   16592   15.8    9.4   0.3   0.4   0.3   0.3   0.3   0.3   3.1   2.0   0.0   0.0   0.2   0.5   0.6   0.5   0.5  0.65  0.90  0.45  0.00  0.00   54.36   56.29    1.58    0.00    0.95
 1990 307    96     3     3     4.3   25.1   16591   15.9    9.2   0.6   0.4   0.3   0.3   0.3   0.3   3.2   2.0   0.0   0.0   0.1   0.5   0.6   0.5   0.5  0.63  0.89  0.45  0.00  0.00   55.05   56.98    1.58    0.00    0.95
 1990 308    97     3     3     4.3   24.9   16591   15.8    9.1   0.1   0.4   0.4   0.3   0.3   0.3   3.2   2.0   0.0   0.0   0.1   0.5   0.6   0.5   0.5  0.62  0.87  0.45  0.00  0.00   55.74   57.56    1.58    0.00    0.95
 1990 309    98     3     3     4.3   24.9   16590   15.5    9.4   0.1   0.3   0.3   0.3   0.3   0.3   3.2   2.0   0.0   0.0   0.2   0.6   0.7   0.5   0.5  0.61  0.85  0.45  0.00  0.00   56.42   57.80    1.58    0.00    0.95
 1990 310    99     3     3     4.3   24.0   16590   15.0    9.1   0.3   0.4   0.3   0.3   0.3   0.3   2.8   2.0   0.0   0.0   0.1   0.5   0.7   0.5   0.5  0.60  0.80  0.45  0.00  0.00   57.09   58.38    1.58    0.00    0.95
 1990 311   100     3     3     4.3   23.0   16589   14.2    8.8   0.4   0.4   0.3   0.3   0.3   0.3   2.5   2.0   0.0   0.0   0.1   0.5   0.6   0.5   0.5  0.59  0.74  0.45  0.00  0.00   57.73   58.92    1.58    0.00    0.96
 1990 312   101     3     3     4.3   22.1   16588   13.4    8.7   0.3   0.4   0.3   0.3   0.3   0.3   2.2   2.1   0.0   0.0   0.2   0.5   0.6   0.5   0.5  0.59  0.70  0.45  0.00  0.00   58.36   59.38    1.58    0.00    0.96
 1990 313   102     3     3     4.3   21.4   16588   12.9    8.5   0.4   0.4   0.3   0.3   0.3   0.3   2.0   2.1   0.0   0.0   0.1   0.5   0.6   0.5   0.5  0.58  0.67  0.44  0.00  0.00   58.94   59.90    1.58    0.00    0.96
 1990 314   103     3     3     4.3   20.7   16587   12.3    8.4   0.4   0.4   0.3   0.3   0.3   0.3   1.7   2.1   0.0   0.0   0.1   0.5   0.6   0.5   0.5  0.58  0.64  0.44  0.00  0.00   59.51   60.36    1.58    0.00    0.96
 1990 315   104     3     3     4.3   20.1   16587   11.8    8.3   0.4   0.4   0.3   0.3   0.3   0.3   1.5   2.1   0.0   0.0   0.1   0.5   0.6   0.5   0.5  0.57  0.61  0.44  0.00  0.00   60.11   60.84    1.58    0.00    0.96
 1990 316   105     3     3     4.3   19.7   16586   11.4    8.3   0.4   0.4   0.3   0.3   0.3   0.3   1.3   2.1   0.0   0.0   0.1   0.5   0.6   0.5   0.5  0.57  0.59  0.44  0.00  0.00   60.73   61.34    1.58    0.00    0.97
 1990 317   106     3     3     4.3   19.2   16585   11.0    8.2   0.4   0.4   0.3   0.3   0.3   0.3   1.2   2.1   0.0   0.0   0.1   0.5   0.6   0.5   0.5  0.57  0.57  0.44  0.00  0.00   61.35   61.85    1.58    0.00    0.97
 1990 318   107     3     3     4.3   18.9   16585   10.8    8.1   0.4   0.4   0.3   0.3   0.3   0.3   1.1   2.1   0.0   0.0   0.1   0.5   0.6   0.5   0.5  0.57  0.55  0.43  0.00  0.00   62.05   62.45    1.58    0.00    0.97
 1990 319   108     3     3     4.3   18.6   16584   10.6    8.0   0.4   0.4   0.3   0.3   0.3   0.3   0.9   2.1   0.0   0.0   0.1   0.5   0.6   0.5   0.5  0.56  0.54  0.42  0.00  0.00   62.79   63.10    1.58    0.00    0.97
 1990 320   109     3     3     4.3   18.3   16583   10.4    7.9   0.1   0.3   0.4   0.3   0.4   0.3   0.8   2.1   0.0   0.0   0.1   0.5   0.6   0.5   0.5  0.56  0.53  0.41  0.00  0.00   63.52   63.74    1.58    0.00    0.97
 1990 321   110     3     3     4.3   18.2   16583    9.8    8.4   0.2   0.3   0.3   0.3   0.3   0.3   0.7   2.1   0.0   0.0   0.2   0.6   0.7   0.5   0.5  0.56  0.52  0.40  0.00  0.00   64.26   63.92    1.58    0.00    0.98
 1990 322   111     3     3     4.3   18.2   16582    9.8    8.5   0.5   0.3   0.3   0.3   0.3   0.3   0.7   2.1   0.0   0.0   0.1   0.7   0.7   0.6   0.5  0.57  0.51  0.39  0.00  0.00   65.03   64.33    1.58    0.00    0.98
 1990 323   112     3     3     4.3   18.1   16581    9.9    8.1   0.3   0.5   0.3   0.3   0.3   0.3   0.6   2.2   0.0   0.0   0.1   0.5   0.6   0.6   0.5  0.57  0.50  0.38  0.00  0.00   65.78   64.98    1.58    0.00    0.98
 1990 324   113     3     3     4.3   17.8   16581    9.8    8.0   0.4   0.4   0.3   0.3   0.3   0.3   0.5   2.2   0.0   0.0   0.1   0.5   0.6   0.5   0.5  0.57  0.49  0.37  0.00  0.00   66.54   65.62    1.58    0.00    0.98
 1990 325   114     3     3     4.3   17.6   16580    9.7    8.0   0.4   0.4   0.3   0.3   0.3   0.3   0.5   2.2   0.0   0.0   0.1   0.5   0.6   0.5   0.5  0.57  0.49  0.37  0.00  0.00   67.31   66.26    1.58    0.00    0.99
 1990 326   115     3     3     4.3   17.5   16579    9.6    7.9   0.4   0.4   0.3   0.3   0.3   0.3   0.4   2.2   0.0   0.0   0.1   0.5   0.6   0.5   0.5  0.57  0.48  0.36  0.00  0.00   68.12   66.95    1.58    0.00    0.99
 1990 327   116     3     3     4.3   17.1   16578    9.3    7.8   0.4   0.4   0.3   0.3   0.3   0.3   0.4   2.1   0.0   0.0   0.1   0.5   0.6   0.5   0.5  0.57  0.48  0.35  0.00  0.00   68.94   67.63    1.58    0.00    0.99
 1990 328   117     3     3     4.3   16.7   16577    8.9    7.8   0.4   0.4   0.3   0.3   0.3   0.3   0.4   2.0   0.0   0.0   0.1   0.5   0.6   0.5   0.5  0.57  0.47  0.34  0.00  0.00   69.75   68.31    1.58    0.00    0.99
 1990 329   118     3     3     4.3   16.3   16577    8.5    7.7   0.4   0.4   0.3   0.3   0.3   0.3   0.3   1.8   0.0   0.0   0.1   0.5   0.6   0.5   0.5  0.57  0.46  0.33  0.00  0.00   70.53   68.95    1.58    0.00    1.00
 1990 330   119     3     3     4.3   15.9   16576    8.2    7.7   0.3   0.4   0.4   0.3   0.3   0.3   0.3   1.7   0.0   0.0   0.1   0.5   0.6   0.5   0.5  0.57  0.46  0.33  0.00  0.00   71.29   69.60    1.58    0.00    1.00
 1990 331   120     3     3     4.3   15.5   16575    7.7    7.9   0.3   0.3   0.3   0.3   0.3   0.3   0.3   1.6   0.0   0.0   0.2   0.6   0.6   0.5   0.5  0.57  0.45  0.32  0.00  0.00   72.04   70.01    1.58    0.00    1.00
 1990 332   121     3     3     4.3   15.3   16575    7.7    7.6   0.6   0.4   0.3   0.3   0.3   0.3   0.3   1.5   0.0   0.0   0.1   0.5   0.6   0.5   0.5  0.57  0.44  0.31  0.00  0.00   72.75   70.74    1.58    0.00    1.00
 1990 333   122     3     3     4.3   14.9   16574    7.3    7.6   0.3   0.4   0.3   0.3   0.3   0.3   0.3   1.5   0.0   0.0   0.1   0.5   0.6   0.5   0.5  0.56  0.44  0.31  0.00  0.00   73.44   71.29    1.58    0.00    1.01
 1990 334   123     3     3     4.3   14.7   16573    7.2    7.5   0.4   0.4   0.3   0.3   0.3   0.3   0.3   1.4   0.0   0.0   0.1   0.5   0.6   0.5   0.5  0.56  0.43  0.30  0.00  0.00   74.11   71.87    1.58    0.00    1.01
 1990 335   124     3     3     4.3   14.4   16573    7.0    7.5   0.4   0.4   0.3   0.3   0.3   0.3   0.3   1.3   0.0   0.0   0.1   0.5   0.6   0.5   0.5  0.56  0.43  0.30  0.00  0.00   74.76   72.42    1.58    0.00    1.01
 1990 336   125     3     3     4.3   14.2   16572    6.8    7.4   0.4   0.4   0.3   0.3   0.3   0.3   0.3   1.2   0.0   0.0   0.1   0.5   0.6   0.5   0.5  0.56  0.42  0.29  0.00  0.00   75.41   72.98    1.58    0.00    1.01
 1990 337   126     3     3     4.3   14.0   16571    6.6    7.4   0.3   0.4   0.3   0.3   0.3   0.3   0.3   1.1   0.0   0.0   0.1   0.5   0.6   0.5   0.5  0.56  0.41  0.28  0.00  0.00   76.06   73.53    1.58    0.00    1.02
 1990 338   127     3     3     4.3   13.8   16571    6.4    7.4   0.3   0.4   0.3   0.3   0.3   0.3   0.3   1.1   0.0   0.0   0.2   0.5   0.6   0.5   0.5  0.56  0.41  0.28  0.00  0.00   76.68   74.02    1.58    0.00    1.02
 1990 339   128     3     3     4.3   13.6   16570    6.4    7.2   0.5   0.4   0.3   0.3   0.3   0.3   0.3   1.0   0.0   0.0   0.1   0.5   0.6   0.5   0.5  0.55  0.40  0.27  0.00  0.00   77.30   74.63    1.58    0.00    1.02
 1990 340   129     3     3     4.3   13.4   16570    6.2    7.2   0.0   0.3   0.4   0.4   0.3   0.3   0.3   1.0   0.0   0.0   0.1   0.5   0.6   0.5   0.5  0.55  0.40  0.27  0.00  0.00   77.93   75.18    1.58    0.00    1.02
 1990 341   130     3     3     4.3   13.3   16569    5.7    7.6   0.0   0.1   0.2   0.2   0.3   0.3   0.3   0.9   0.0   0.0   0.2   0.6   0.7   0.5   0.5  0.55  0.39  0.26  0.00  0.00   78.61   75.40    1.58    0.00    1.03
 1990 342   131     3     3     4.4   13.3   16568    5.3    8.0   0.1   0.1   0.2   0.2   0.2   0.3   0.3   0.9   0.0   0.0   0.3   0.7   0.7   0.6   0.5  0.56  0.40  0.25  0.00  0.00   79.35   75.55    1.58    0.00    1.03
 1990 343   132     3     3     4.4   13.3   16568    5.4    8.0   0.6   0.2   0.2   0.2   0.3   0.2   0.3   0.8   0.0   0.0   0.0   0.7   0.7   0.6   0.5  0.57  0.39  0.25  0.00  0.00   80.11   75.98    1.58    0.00    1.03
 1990 344   133     3     3     5.2   12.5   16567    4.7    7.9   0.0   0.3   0.2   0.2   0.2   0.3   0.3   0.6   0.0   0.0   0.1   0.5   0.7   0.6   0.6  0.58  0.39  0.24  0.00  0.00   80.84   76.35    1.58    0.00    1.04
 1990 345   134     3     3     5.4   12.5   16566    4.3    8.2   0.0   0.3   0.2   0.2   0.2   0.2   0.2   0.5   0.0   0.0   0.2   0.6   0.8   0.6   0.6  0.59  0.40  0.25  0.00  0.00   81.48   76.44    1.59    0.00    1.04
 1990 346   135     3     3     5.5   12.6   16566    4.3    8.3   0.3   0.3   0.2   0.2   0.2   0.2   0.2   0.5   0.0   0.0   0.1   0.7   0.7   0.6   0.6  0.59  0.40  0.25  0.00  0.00   82.14   76.69    1.59    0.00    1.04
 1990 347   136     3     3     5.6   12.6   16565    4.4    8.3   0.4   0.3   0.2   0.2   0.2   0.2   0.2   0.4   0.0   0.0   0.1   0.7   0.7   0.6   0.6  0.59  0.41  0.25  0.00  0.00   82.78   76.88    1.59    0.00    1.04
 1990 348   137     3     3     5.6   12.6   16565    4.6    8.0   0.4   0.4   0.3   0.2   0.3   0.2   0.3   0.4   0.0   0.0   0.1   0.5   0.6   0.6   0.6  0.59  0.41  0.25  0.00  0.00   83.42   77.31    1.60    0.00    1.05
 1990 349   138     3     3     5.6   12.5   16564    4.8    7.8   0.4   0.4   0.3   0.3   0.3   0.3   0.3   0.4   0.0   0.0   0.1   0.5   0.6   0.6   0.6  0.59  0.40  0.24  0.00  0.00   84.06   77.84    1.60    0.00    1.05
 1990 350   139     3     3     5.6   12.4   16563    4.8    7.7   0.4   0.4   0.3   0.3   0.3   0.3   0.3   0.4   0.0   0.0   0.1   0.5   0.6   0.6   0.6  0.59  0.40  0.24  0.00  0.00   84.75   78.39    1.60    0.00    1.05
 1990 351   140     3     3     5.6   12.3   16563    4.8    7.6   0.4   0.4   0.3   0.3   0.3   0.3   0.3   0.3   0.0   0.0   0.1   0.5   0.6   0.6   0.5  0.59  0.40  0.23  0.00  0.00   85.47   78.96    1.60    0.00    1.05
 1990 352   141     3     3     5.6   12.3   16562    4.8    7.5   0.2   0.3   0.4   0.3   0.3   0.3   0.3   0.3   0.0   0.0   0.1   0.5   0.6   0.5   0.5  0.59  0.40  0.23  0.00  0.00   86.24   79.56    1.60    0.00    1.06
 1990 353   142     3     3     5.6   12.3   16561    4.3    8.0   0.2   0.3   0.3   0.3   0.3   0.3   0.3   0.3   0.0   0.0   0.2   0.6   0.7   0.6   0.6  0.59  0.40  0.22  0.00  0.00   87.01   79.73    1.60    0.00    1.06
 1990 354   143     3     3     5.6   12.5   16561    4.5    8.1   0.6   0.3   0.3   0.3   0.3   0.3   0.3   0.3   0.0   0.0   0.0   0.7   0.7   0.6   0.6  0.59  0.39  0.22  0.00  0.00   87.82   80.12    1.60    0.00    1.06
 1990 355   144     3     3     5.6   12.5   16560    4.7    7.8   0.3   0.5   0.3   0.3   0.3   0.3   0.3   0.3   0.0   0.0   0.1   0.5   0.6   0.6   0.6  0.59  0.39  0.22  0.00  0.00   88.63   80.70    1.60    0.00    1.07
 1990 356   145     3     3     5.6   12.4   16559    4.7    7.6   0.3   0.3   0.4   0.3   0.3   0.3   0.3   0.3   0.0   0.0   0.1   0.5   0.6   0.6   0.6  0.59  0.39  0.21  0.00  0.00   89.44   81.38    1.60    0.00    1.07
 1990 357   146     3     3     5.6   12.3   16558    4.2    8.1   0.3   0.3   0.3   0.3   0.3   0.3   0.3   0.3   0.0   0.0   0.2   0.6   0.7   0.6   0.6  0.59  0.39  0.21  0.00  0.00   90.21   81.51    1.60    0.00    1.07
 1990 358   147     3     3     5.6   12.6   16558    4.4    8.2   0.5   0.3   0.3   0.3   0.3   0.3   0.3   0.3   0.0   0.0   0.1   0.7   0.7   0.6   0.6  0.59  0.39  0.21  0.00  0.00   91.01   81.88    1.60    0.00    1.07
 1990 359   148     3     3     5.7   12.6   16557    4.1    8.5   0.3   0.3   0.3   0.3   0.2   0.2   0.3   0.3   0.0   0.0   0.2   0.7   0.8   0.6   0.6  0.60  0.40  0.20  0.00  0.00   91.78   82.00    1.60    0.00    1.08
 1990 360   149     3     3     5.7   12.8   16556    4.3    8.4   0.5   0.3   0.3   0.3   0.3   0.3   0.3   0.3   0.0   0.0   0.1   0.7   0.8   0.6   0.6  0.60  0.40  0.20  0.00  0.00   92.57   82.35    1.60    0.00    1.08
 1990 361   150     3     3     5.7   12.6   16556    4.5    8.1   0.4   0.5   0.3   0.3   0.3   0.3   0.3   0.3   0.0   0.0   0.1   0.5   0.8   0.6   0.6  0.60  0.40  0.20  0.00  0.00   93.36   82.84    1.60    0.00    1.08
 1990 362   151     3     3     5.7   12.5   16555    4.7    7.8   0.4   0.4   0.3   0.3   0.3   0.3   0.3   0.3   0.0   0.0   0.1   0.5   0.6   0.6   0.6  0.60  0.40  0.20  0.00  0.00   94.20   83.56    1.60    0.00    1.09
 1990 363   152     3     3     5.7   12.3   16554    4.6    7.6   0.4   0.4   0.3   0.3   0.3   0.3   0.3   0.3   0.0   0.0   0.1   0.5   0.6   0.6   0.6  0.60  0.40  0.19  0.00  0.00   95.01   84.20    1.60    0.00    1.09
 1990 364   153     3     3     5.7   12.2   16553    4.6    7.5   0.4   0.4   0.3   0.3   0.3   0.3   0.3   0.3   0.0   0.0   0.1   0.5   0.6   0.6   0.6  0.59  0.40  0.19  0.00  0.00   95.81   84.84    1.60    0.00    1.09
 1990 365   154     3     3     5.7   12.1   16553    4.6    7.5   0.4   0.4   0.3   0.3   0.3   0.3   0.3   0.3   0.0   0.0   0.1   0.5   0.6   0.5   0.5  0.59  0.40  0.19  0.00  0.00   96.62   85.46    1.60    0.00    1.09
 1991 001   155     3     3     5.7   12.0   16552    4.6    7.4   0.4   0.4   0.3   0.3   0.3   0.3   0.3   0.3   0.0   0.0   0.1   0.5   0.6   0.5   0.5  0.59  0.40  0.19  0.00  0.00   97.42   86.07    1.60    0.00    1.10
 1991 002   156     3     3     5.7   12.0   16551    4.6    7.4   0.4   0.4   0.3   0.3   0.3   0.3   0.3   0.3   0.0   0.0   0.1   0.5   0.6   0.5   0.5  0.59  0.40  0.18  0.00  0.00   98.20   86.67    1.60    0.00    1.10
 1991 003   157     3     3     5.7   12.0   16551    4.6    7.4   0.4   0.4   0.3   0.3   0.3   0.3   0.3   0.3   0.0   0.0   0.1   0.5   0.6   0.5   0.5  0.59  0.40  0.18  0.00  0.00   99.00   87.30    1.60    0.00    1.10
 1991 004   158     3     3     5.7   12.0   16550    4.6    7.3   0.4   0.4   0.3   0.3   0.3   0.3   0.3   0.3   0.0   0.0   0.1   0.4   0.6   0.5   0.5  0.59  0.40  0.18  0.00  0.00   99.83   87.95    1.60    0.00    1.10
 1991 005   159     3     3     5.7   11.9   16549    4.6    7.3   0.4   0.4   0.3   0.3   0.3   0.3   0.3   0.3   0.0   0.0   0.1   0.4   0.6   0.5   0.5  0.59  0.39  0.18  0.00  0.00  100.65   88.60    1.60    0.00    1.11
 1991 006   160     3     3     5.7   11.9   16548    4.6    7.2   0.4   0.4   0.3   0.3   0.3   0.3   0.3   0.3   0.0   0.0   0.1   0.4   0.6   0.5   0.5  0.59  0.39  0.18  0.00  0.00  101.44   89.24    1.60    0.00    1.11
 1991 007   161     3     3     5.7   11.8   16548    4.6    7.2   0.4   0.4   0.3   0.3   0.3   0.3   0.3   0.3   0.0   0.0   0.1   0.4   0.6   0.5   0.5  0.59  0.39  0.18  0.00  0.00  102.19   89.86    1.60    0.00    1.11
 1991 008   162     3     3     5.7   11.7   16547    4.6    7.1   0.4   0.4   0.3   0.3   0.3   0.3   0.3   0.3   0.0   0.0   0.1   0.4   0.6   0.5   0.5  0.59  0.39  0.18  0.00  0.00  102.94   90.49    1.60    0.00    1.11
 1991 009   163     3     3     5.7   11.7   16546    4.6    7.1   0.2   0.4   0.4   0.3   0.3   0.3   0.3   0.3   0.0   0.0   0.1   0.3   0.6   0.5   0.5  0.59  0.39  0.17  0.00  0.00  103.68   91.13    1.60    0.00    1.11
 1991 010   164     3     3     5.7   12.5   16546    5.0    7.5   0.2   0.4   0.5   0.4   0.3   0.3   0.3   0.3   0.0   0.0   0.2   0.5   0.6   0.5   0.5  0.60  0.39  0.17  0.00  0.00  104.53   91.54    1.60    0.00    1.12
 1991 011   165     3     3     5.7   13.4   16545    5.7    7.7   0.6   0.5   0.6   0.4   0.4   0.3   0.3   0.3   0.0   0.0   0.0   0.6   0.7   0.5   0.5  0.62  0.39  0.17  0.00  0.00  105.39   92.22    1.60    0.00    1.12

*DSSAT Cropping System Model Ver. 4.0.2.000               Aug 02, 2016; 15:29:24

*RUN   2        : UYMZ                    
 MODEL          : MZCER040 - Maize           
 EXPERIMENT     : UYMZ0107 MZ    late to create DSS                             
 TREATMENT  1   : UYMZ                    

@YEAR DOY   DAS  NAPC  NI#M    NLCC   NIAD    NOAD   NITD   NHTD  NI1D  NI2D  NI3D  NI4D  NI5D  NI6D  NI7D  NI8D  NI9D  NI10  NH1D  NH2D  NH3D  NH4D  NH5D  NH6D  NH7D  NH8D  NH9D  NH10    NMNC    NITC    NDNC    NIMC    AMLC
 1991 211     0     0     0     0.0   99.5   16645   77.2   22.3  16.6  15.4  15.2   8.6   4.6   0.0   0.1   0.1   0.0   0.0   0.0   1.2   1.5   1.4   1.4  1.50  1.46  1.45  0.00  0.00    0.71    2.37    0.00    0.00    0.00
 1991 212     1     0     0     0.0  100.2   16645   78.5   21.7   8.9  19.3  15.5   8.7   4.7   0.0   0.1   0.1   0.0   0.0   0.1   1.0   1.4   1.4   1.4  1.51  1.43  1.40  0.00  0.00    1.39    3.66    0.00    0.00    0.00
 1991 213     2     0     0     0.0  100.8   16644   79.5   21.3   9.0  18.9  16.0   8.8   4.7   0.1   0.2   0.2   0.0   0.0   0.1   1.1   1.4   1.3   1.3  1.51  1.39  1.36  0.00  0.00    2.02    4.65    0.00    0.00    0.00
 1991 214     3     0     0     0.0  101.3   16643   80.5   20.8   9.1  18.8  16.3   8.9   4.8   0.1   0.2   0.2   0.0   0.0   0.1   1.0   1.4   1.3   1.3  1.51  1.36  1.32  0.00  0.00    2.56    5.68    0.00    0.00    0.00
 1991 215     4     3     3     0.0  104.7   16643   82.9   21.9   7.7  16.2  19.6   9.0   4.9   0.1   0.2   0.3   0.0   0.0   2.7   0.9   1.4   1.2   1.2  1.52  1.33  1.28  0.00  0.00    3.02    6.55    0.00    0.00    0.07
 1991 216     5     3     3     0.0  105.0   16643   84.2   20.9   5.1  12.4  19.4  12.6   5.0   0.1   0.3   0.3   0.0   0.0   1.4   1.0   1.3   1.2   1.2  1.52  1.30  1.24  0.00  0.00    3.41    7.85    0.00    0.00    0.15
 1991 217     6     3     3     0.0  105.3   16642   84.6   20.7   5.2  12.3  19.0  12.5   5.6   0.1   0.3   0.3   0.0   0.0   1.3   1.0   1.4   1.2   1.2  1.52  1.27  1.21  0.00  0.00    3.75    8.31    0.00    0.00    0.19
 1991 218     7     3     3     0.0  105.6   16642   85.3   20.3   5.7  12.2  18.7  12.5   5.9   0.1   0.4   0.4   0.0   0.0   0.6   1.0   1.4   1.2   1.2  1.52  1.25  1.17  0.00  0.00    4.09    8.99    0.00    0.00    0.29
 1991 219     8     3     3     0.0  105.9   16642   86.0   19.9   6.2  12.2  18.7  12.5   6.1   0.2   0.4   0.4   0.0   0.0   0.4   0.9   1.5   1.2   1.1  1.52  1.22  1.14  0.00  0.00    4.44    9.64    0.00    0.00    0.32
 1991 220     9     3     3     0.0  106.2   16641   86.6   19.6   6.6  12.2  18.7  12.5   6.1   0.2   0.4   0.4   0.0   0.0   0.2   0.9   1.5   1.2   1.1  1.53  1.20  1.11  0.00  0.00    4.81   10.31    0.00    0.00    0.37
 1991 221    10     3     3     0.0  106.5   16641   87.4   19.2   6.9  12.1  18.7  12.6   6.2   0.2   0.5   0.5   0.0   0.0   0.0   0.8   1.5   1.1   1.1  1.53  1.17  1.08  0.00  0.00    5.20   11.05    0.00    0.00    0.43
 1991 222    11     3     3     0.0  106.9   16640   88.1   18.8   7.2  12.1  18.8  12.6   6.3   0.2   0.5   0.5   0.0   0.0   0.0   0.8   1.4   1.1   1.1  1.53  1.15  1.05  0.00  0.00    5.62   11.77    0.00    0.00    0.45
 1991 223    12     3     3     0.0  107.3   16640   88.8   18.6   7.5  12.2  18.9  12.7   6.3   0.2   0.5   0.6   0.0   0.0   0.1   0.7   1.4   1.1   1.0  1.53  1.13  1.02  0.00  0.00    6.03   12.47    0.00    0.00    0.45
 1991 224    13     3     3     0.0  107.8   16640   89.5   18.3   7.7  12.2  19.0  12.7   6.4   0.2   0.6   0.6   0.0   0.0   0.1   0.7   1.4   1.1   1.0  1.54  1.10  0.99  0.00  0.00    6.45   13.16    0.00    0.00    0.47
 1991 225    14     3     3     0.0  108.2   16639   90.2   18.0   8.0  12.2  19.0  12.8   6.4   0.3   0.6   0.6   0.0   0.0   0.1   0.7   1.4   1.0   1.0  1.54  1.08  0.96  0.00  0.00    6.89   13.85    0.00    0.00    0.47
 1991 226    15     3     3     0.0  108.6   16639   90.9   17.8   8.3  12.2  19.1  12.8   6.5   0.3   0.6   0.6   0.0   0.0   0.1   0.6   1.4   1.0   1.0  1.54  1.06  0.93  0.00  0.00    7.33   14.54    0.00    0.00    0.47
 1991 227    16     3     3     0.0  109.1   16638   91.6   17.5   8.6  12.2  19.1  12.9   6.5   0.3   0.7   0.7   0.0   0.0   0.1   0.6   1.3   1.0   0.9  1.54  1.04  0.91  0.00  0.00    7.81   15.27    0.00    0.00    0.47
 1991 228    17     3     3     0.0  109.6   16638   92.4   17.3   8.8  12.3  19.2  13.0   6.6   0.3   0.7   0.7   0.0   0.0   0.1   0.6   1.3   1.0   0.9  1.54  1.02  0.88  0.00  0.00    8.35   16.04    0.00    0.00    0.47
 1991 229    18     3     3     0.0  110.3   16637   93.2   17.0   9.2  12.4  19.3  13.0   6.6   0.3   0.7   0.7   0.0   0.0   0.1   0.6   1.3   0.9   0.9  1.55  1.00  0.85  0.00  0.00    8.96   16.90    0.00    0.00    0.48
 1991 230    19     3     3     0.0  110.7   16636   93.9   16.8   9.3  12.3  19.4  13.1   6.7   0.3   0.7   0.8   0.0   0.0   0.1   0.6   1.3   0.9   0.9  1.55  0.98  0.83  0.00  0.00    9.63   17.80    0.00    0.00    0.48
 1991 231    20     3     3     0.0  111.4   16636   94.8   16.6   9.6  12.4  19.5  13.2   6.8   0.4   0.8   0.8   0.0   0.0   0.1   0.5   1.3   0.9   0.9  1.55  0.96  0.80  0.00  0.00   10.32   18.73    0.00    0.00    0.48
 1991 232    21     3     3     0.0  112.1   16635   95.8   16.3   9.9  12.5  19.6  13.2   6.8   0.4   0.8   0.8   0.0   0.0   0.1   0.5   1.3   0.9   0.8  1.56  0.94  0.78  0.00  0.00   11.01   19.64    0.00    0.00    0.48
 1991 233    22     3     3     0.0  112.8   16634   96.6   16.1  10.2  12.6  19.7  13.3   6.9   0.4   0.8   0.9   0.0   0.0   0.1   0.5   1.2   0.8   0.8  1.56  0.92  0.76  0.00  0.00   11.70   20.53    0.00    0.00    0.51
 1991 234    23     3     3     0.0  113.4   16634   97.5   15.9  10.5  12.7  19.8  13.4   6.9   0.4   0.9   0.9   0.0   0.0   0.1   0.5   1.2   0.8   0.8  1.56  0.90  0.74  0.00  0.00   12.39   21.37    0.00    0.00    0.53
 1991 235    24     3     3     0.0  114.0   16633   98.3   15.8  10.7  12.8  19.9  13.4   7.0   0.4   0.9   0.9   0.0   0.0   0.1   0.5   1.2   0.8   0.8  1.56  0.88  0.71  0.00  0.00   13.07   22.22    0.00    0.00    0.55
 1991 236    25     3     3     0.0  114.6   16632   99.0   15.6  11.0  12.9  20.0  13.5   7.0   0.5   0.9   0.9   0.0   0.0   0.1   0.5   1.2   0.8   0.8  1.57  0.86  0.69  0.00  0.00   13.76   23.05    0.00    0.00    0.56
 1991 237    26     3     3     0.0  115.2   16632   99.8   15.4  11.2  12.9  20.1  13.5   7.1   0.5   1.0   1.0   0.0   0.0   0.1   0.5   1.2   0.8   0.8  1.57  0.85  0.67  0.00  0.00   14.42   23.85    0.00    0.00    0.58
 1991 238    27     3     3     0.0  115.7   16631  100.4   15.3  11.4  12.9  20.2  13.6   7.1   0.5   1.0   1.0   0.0   0.0   0.1   0.5   1.2   0.7   0.7  1.57  0.83  0.65  0.00  0.00   15.08   24.63    0.00    0.00    0.60
 1991 239    28     3     3     0.0  116.0   16630  100.9   15.2  11.5  12.9  20.2  13.6   7.1   0.5   1.0   1.0   0.0   0.0   0.1   0.5   1.2   0.7   0.7  1.57  0.82  0.64  0.00  0.00   15.70   25.35    0.00    0.00    0.62
 1991 240    29     3     3     0.0  116.4   16630  101.3   15.1  11.7  12.9  20.2  13.7   7.2   0.5   1.0   1.0   0.0   0.0   0.1   0.5   1.2   0.7   0.7  1.57  0.80  0.62  0.00  0.00   16.27   26.02    0.00    0.00    0.64
 1991 241    30     3     3     0.0  116.7   16629  101.8   14.9  11.8  12.9  20.2  13.7   7.2   0.6   1.1   1.0   0.0   0.0   0.1   0.5   1.2   0.7   0.7  1.58  0.79  0.60  0.00  0.00   16.83   26.67    0.00    0.00    0.66
 1991 242    31     3     3     0.0  116.9   16629  102.1   14.8  11.9  12.9  20.2  13.7   7.3   0.6   1.1   1.1   0.0   0.0   0.1   0.5   1.2   0.7   0.7  1.58  0.77  0.59  0.00  0.00   17.40   27.32    0.00    0.00    0.68
 1991 243    32     3     3     0.0  117.1   16628  102.4   14.7  12.0  12.9  20.2  13.8   7.3   0.6   1.1   1.1   0.0   0.0   0.1   0.5   1.2   0.7   0.7  1.58  0.76  0.57  0.00  0.00   17.97   27.96    0.00    0.00    0.70
 1991 244    33     3     3     0.0  117.1   16628  102.4   14.6   8.2  14.0  20.5  13.8   7.3   0.6   1.1   1.1   0.0   0.0   0.1   0.5   1.2   0.7   0.7  1.58  0.75  0.56  0.00  0.00   18.53   28.60    0.00    0.00    0.72
 1991 245    34     3     3     0.0  117.2   16627  102.6   14.6   8.2  13.6  20.7  13.9   7.4   0.6   1.2   1.1   0.0   0.0   0.1   0.6   1.1   0.7   0.7  1.59  0.74  0.54  0.00  0.00   19.09   29.13    0.00    0.00    0.73
 1991 246    35     3     3     0.0  117.6   16626  103.0   14.6   8.2  13.4  20.9  13.9   7.4   0.6   1.2   1.1   0.0   0.0   0.1   0.6   1.1   0.7   0.7  1.59  0.73  0.53  0.00  0.00   19.64   29.67    0.00    0.00    0.75
 1991 247    36     3     3     0.0  117.6   16626  103.1   14.5   8.3  13.4  20.8  14.0   7.4   0.7   1.2   1.2   0.0   0.0   0.1   0.6   1.1   0.7   0.7  1.59  0.71  0.52  0.00  0.00   20.18   30.30    0.00    0.00    0.77
 1991 248    37     3     3     0.0  117.2   16625  102.8   14.4   8.3  13.2  20.5  14.0   7.5   0.7   1.2   1.2   0.0   0.0   0.1   0.6   1.1   0.7   0.7  1.59  0.70  0.50  0.00  0.00   20.74   30.93    0.00    0.00    0.79
 1991 249    38     3     3     0.0  116.8   16625  102.5   14.3   8.4  13.0  20.2  14.1   7.5   0.7   1.2   1.2   0.0   0.0   0.1   0.6   1.1   0.7   0.7  1.59  0.69  0.49  0.00  0.00   21.35   31.61    0.00    0.00    0.81
 1991 250    39     3     3     0.0  116.7   16624  102.5   14.2   7.6  13.3  20.1  14.1   7.5   0.7   1.3   1.2   0.0   0.0   0.1   0.6   1.1   0.6   0.6  1.59  0.68  0.48  0.00  0.00   21.98   32.31    0.00    0.00    0.83
 1991 251    40     3     3     0.0  116.3   16623  102.2   14.1   7.3  13.2  19.9  14.2   7.6   0.7   1.3   1.2   0.0   0.0   0.2   0.5   1.1   0.6   0.6  1.60  0.67  0.47  0.00  0.00   22.63   32.97    0.00    0.00    0.85
 1991 252    41     3     3     0.0  116.2   16623  102.2   14.0   7.3  13.1  19.8  14.2   7.6   0.8   1.3   1.2   0.0   0.0   0.1   0.5   1.1   0.6   0.6  1.60  0.66  0.45  0.00  0.00   23.24   33.67    0.00    0.00    0.88
 1991 253    42     3     3     0.0  115.6   16622  101.7   13.9   7.3  12.9  19.4  14.2   7.6   0.8   1.3   1.3   0.0   0.0   0.1   0.5   1.1   0.6   0.6  1.60  0.65  0.44  0.00  0.00   23.83   34.29    0.00    0.00    0.90
 1991 254    43     3     3     0.0  115.1   16622  101.2   13.9   7.3  12.7  19.1  14.2   7.7   0.8   1.4   1.3   0.0   0.0   0.1   0.5   1.1   0.6   0.6  1.60  0.64  0.43  0.00  0.00   24.38   34.88    0.00    0.00    0.92
 1991 255    44     3     3     0.0  114.2   16621  100.4   13.8   7.3  12.4  18.7  14.2   7.7   0.8   1.4   1.3   0.0   0.0   0.1   0.5   1.1   0.6   0.6  1.60  0.63  0.42  0.00  0.00   24.95   35.47    0.00    0.00    0.93
 1991 256    45     3     3     0.0  113.2   16620   99.5   13.7   7.3  12.2  18.3  14.2   7.7   0.8   1.4   1.3   0.0   0.0   0.1   0.5   1.1   0.6   0.6  1.61  0.63  0.41  0.00  0.00   25.57   36.12    0.00    0.00    0.95
 1991 257    46     3     3     0.0  112.1   16620   98.5   13.6   7.3  11.9  17.8  14.1   7.8   0.8   1.4   1.3   0.0   0.0   0.1   0.5   1.0   0.6   0.6  1.61  0.62  0.40  0.00  0.00   26.24   36.82    0.00    0.00    0.97
 1991 258    47     3     3     0.0  110.4   16619   96.9   13.5   4.9  12.3  17.4  13.9   7.8   0.9   1.4   1.3   0.0   0.0   0.1   0.5   1.0   0.6   0.6  1.61  0.61  0.39  0.00  0.00   26.91   37.52    0.00    0.00    0.99
 1991 259    48     3     3     0.0  111.0   16618   97.4   13.7   4.5  11.9  17.9  14.0   7.8   0.9   1.5   1.3   0.0   0.0   0.2   0.6   1.0   0.6   0.6  1.61  0.60  0.38  0.00  0.00   27.54   38.02    0.00    0.00    1.01
 1991 260    49     3     3     0.0  111.2   16618   97.6   13.7   3.3  10.5  18.5  14.6   7.9   0.9   1.5   1.4   0.0   0.0   0.1   0.7   1.0   0.6   0.6  1.61  0.59  0.38  0.00  0.00   28.17   38.59    0.00    0.00    1.04
 1991 261    50     3     3     1.3  107.6   16617   93.7   13.9   0.9   5.3  13.0  12.1  10.2   3.4   2.2   1.7   0.0   0.0   0.1   0.7   1.1   0.6   0.6  1.62  0.59  0.37  0.00  0.00   28.75   38.88    0.00    0.00    1.06
 1991 262    51     3     3     2.0  104.9   16617   90.7   14.2   0.9   4.9  11.9  11.4  10.1   3.6   2.2   1.7   0.0   0.0   0.1   0.8   1.1   0.6   0.6  1.63  0.59  0.37  0.00  0.00   29.29   39.02    0.00    0.00    1.09
 1991 263    52     3     3     2.4  103.1   16616   88.8   14.3   1.0   4.7  11.3  11.0   9.9   3.6   2.3   1.7   0.0   0.0   0.1   0.7   1.2   0.7   0.6  1.65  0.60  0.37  0.00  0.00   29.83   39.32    0.00    0.00    1.11
 1991 264    53     3     3     2.6  102.4   16616   88.0   14.4   1.1   4.7  11.1  10.8   9.8   3.6   2.3   1.7   0.0   0.0   0.1   0.7   1.2   0.7   0.7  1.66  0.61  0.37  0.00  0.00   30.41   39.77    0.00    0.00    1.12
 1991 265    54     3     3     2.8  100.6   16615   86.2   14.4   1.2   4.5  10.5  10.5   9.7   3.7   2.3   1.7   0.0   0.0   0.1   0.6   1.1   0.7   0.7  1.68  0.61  0.37  0.00  0.00   31.01   40.23    0.01    0.00    1.14
 1991 266    55     3     3     2.9   97.9   16614   83.6   14.3   1.3   4.3   9.6  10.2   9.6   3.7   2.3   1.7   0.0   0.0   0.1   0.6   1.1   0.7   0.7  1.69  0.62  0.37  0.00  0.00   31.60   40.74    0.03    0.00    1.16
 1991 267    56     3     3     2.9   96.1   16614   81.8   14.4   1.3   4.1   9.0  10.0   9.5   3.7   2.3   1.7   0.0   0.0   0.1   0.6   1.0   0.7   0.7  1.71  0.62  0.37  0.00  0.00   32.18   41.22    0.04    0.00    1.16
 1991 268    57     3     3     2.9   95.2   16613   80.8   14.4   1.4   4.0   8.6   9.8   9.3   3.7   2.3   1.7   0.0   0.0   0.1   0.6   1.0   0.7   0.7  1.72  0.63  0.37  0.00  0.00   32.75   41.70    0.05    0.00    1.17
 1991 269    58     3     3     2.9   93.6   16613   79.2   14.4   1.5   3.9   8.2   9.6   9.2   3.7   2.3   1.7   0.0   0.0   0.1   0.5   1.0   0.7   0.8  1.73  0.63  0.37  0.00  0.00   33.32   42.17    0.06    0.00    1.17
 1991 270    59     3     3     2.9   91.1   16612   76.8   14.3   1.5   3.6   7.5   9.3   8.9   3.7   2.3   1.7   0.0   0.0   0.1   0.5   1.0   0.7   0.7  1.75  0.64  0.37  0.00  0.00   33.87   42.69    0.07    0.00    1.17
 1991 271    60     3     3     2.9   88.3   16612   74.0   14.3   1.4   3.4   6.7   9.0   8.6   3.7   2.3   1.7   0.0   0.0   0.1   0.5   0.9   0.6   0.7  1.76  0.64  0.37  0.00  0.00   34.44   43.21    0.07    0.00    1.17
 1991 272    61     3     3     2.9   85.3   16611   71.1   14.2   1.4   3.1   6.0   8.6   8.3   3.7   2.3   1.7   0.0   0.0   0.1   0.5   0.9   0.6   0.7  1.78  0.65  0.37  0.00  0.00   35.00   43.73    0.08    0.00    1.18
 1991 273    62     3     3     2.9   83.7   16611   69.5   14.2   1.4   2.9   5.6   8.3   8.1   3.7   2.3   1.7   0.0   0.0   0.1   0.5   0.9   0.6   0.7  1.79  0.65  0.37  0.00  0.00   35.55   44.22    0.08    0.00    1.18
 1991 274    63     3     3     2.9   81.6   16610   67.4   14.1   1.3   2.7   5.1   8.0   7.9   3.7   2.4   1.8   0.0   0.0   0.1   0.4   0.8   0.6   0.7  1.80  0.65  0.37  0.00  0.00   36.08   44.71    0.09    0.00    1.18
 1991 275    64     3     3     2.9   79.4   16610   65.3   14.1   0.6   2.4   4.9   7.7   7.6   3.7   2.4   1.8   0.0   0.0   0.1   0.4   0.8   0.6   0.7  1.82  0.66  0.37  0.00  0.00   36.58   45.16    0.09    0.00    1.18
 1991 276    65     3     3     2.9   77.2   16609   62.9   14.2   0.6   2.2   4.4   7.4   7.3   3.7   2.4   1.8   0.0   0.0   0.2   0.5   0.8   0.6   0.6  1.83  0.66  0.37  0.00  0.00   37.11   45.47    0.10    0.00    1.19
 1991 277    66     3     3     2.9   75.0   16608   60.8   14.2   0.6   2.0   3.9   7.0   7.0   3.7   2.4   1.8   0.0   0.0   0.1   0.5   0.8   0.6   0.6  1.84  0.67  0.37  0.00  0.00   37.65   45.93    0.10    0.00    1.19
 1991 278    67     3     3     2.9   73.3   16608   59.0   14.2   0.6   1.9   3.5   6.8   6.8   3.7   2.4   1.8   0.0   0.0   0.1   0.5   0.8   0.6   0.6  1.86  0.67  0.37  0.00  0.00   38.20   46.38    0.11    0.00    1.19
 1991 279    68     3     3     2.9   72.8   16607   58.5   14.3   0.4   1.5   3.4   6.9   6.7   3.7   2.4   1.8   0.0   0.0   0.1   0.5   0.8   0.6   0.6  1.87  0.68  0.37  0.00  0.00   38.72   46.81    0.11    0.00    1.19
 1991 280    69     3     3     2.9   71.4   16607   56.9   14.5   0.2   1.1   2.8   5.9   7.1   3.9   2.5   1.8   0.0   0.0   0.2   0.6   0.8   0.6   0.6  1.88  0.68  0.37  0.00  0.00   39.21   47.01    0.12    0.00    1.20
 1991 281    70     3     3     3.4   70.2   16606   55.4   14.8   0.2   1.0   2.6   5.5   6.6   4.0   2.6   1.9   0.0   0.0   0.2   0.6   0.9   0.6   0.6  1.90  0.69  0.37  0.00  0.00   39.68   47.12    0.14    0.00    1.20
 1991 282    71     3     3     3.6   67.9   16606   53.0   14.9   0.4   0.9   2.2   5.0   6.1   4.0   2.6   1.9   0.0   0.0   0.2   0.7   0.9   0.6   0.6  1.91  0.69  0.37  0.00  0.00   40.14   47.31    0.15    0.00    1.20
 1991 283    72     3     3     3.7   66.5   16606   51.6   14.9   0.4   0.8   2.0   4.7   5.8   4.0   2.6   1.9   0.0   0.0   0.1   0.6   0.9   0.6   0.6  1.92  0.69  0.37  0.00  0.00   40.60   47.65    0.16    0.00    1.21
 1991 284    73     3     3     3.7   63.1   16605   48.5   14.7   0.4   0.7   1.5   4.2   5.3   4.0   2.6   1.9   0.0   0.0   0.1   0.6   0.8   0.6   0.6  1.92  0.70  0.37  0.00  0.00   41.10   48.10    0.17    0.00    1.21
 1991 285    74     3     3     3.7   59.7   16605   45.3   14.4   0.4   0.6   1.0   3.7   4.7   3.9   2.6   1.9   0.0   0.0   0.1   0.5   0.7   0.6   0.6  1.91  0.70  0.37  0.00  0.00   41.67   48.56    0.18    0.00    1.22
 1991 286    75     3     3     3.7   55.4   16604   41.4   14.0   0.4   0.4   0.7   3.2   4.1   3.7   2.6   1.9   0.0   0.0   0.1   0.5   0.7   0.6   0.6  1.84  0.71  0.37  0.00  0.00   42.31   49.08    0.18    0.00    1.22
 1991 287    76     3     3     3.7   50.1   16603   36.7   13.3   0.4   0.4   0.4   2.5   3.3   3.3   2.6   1.9   0.0   0.0   0.1   0.5   0.6   0.6   0.6  1.72  0.71  0.37  0.00  0.00   43.03   49.66    0.19    0.00    1.22
 1991 288    77     3     3     3.7   47.0   16602   34.0   13.0   0.1   0.3   0.4   1.9   3.1   3.1   2.7   1.9   0.0   0.0   0.2   0.5   0.6   0.6   0.6  1.63  0.71  0.37  0.00  0.00   43.81   50.20    0.19    0.00    1.23
 1991 289    78     3     3     7.2   41.6   16602   28.6   13.0   0.4   0.2   0.2   1.0   1.8   2.5   2.8   2.3   0.0   0.0   0.0   0.6   0.7   0.6   0.6  1.54  0.72  0.37  0.00  0.00   44.56   50.51    0.20    0.00    1.23
 1991 290    79     3     3     8.4   39.0   16601   25.9   13.1   0.3   0.2   0.2   0.9   1.4   2.2   2.7   2.3   0.0   0.0   0.2   0.7   0.8   0.6   0.6  1.47  0.73  0.37  0.00  0.00   45.23   50.60    0.27    0.00    1.23
 1991 291    80     3     3     9.1   36.0   16600   23.3   12.8   0.3   0.2   0.2   0.7   1.1   1.8   2.6   2.3   0.0   0.0   0.3   0.7   0.8   0.6   0.6  1.35  0.73  0.37  0.00  0.00   45.92   50.75    0.31    0.00    1.23
 1991 292    81     3     3     9.4   33.1   16600   21.3   11.8   0.5   0.4   0.3   0.5   0.9   1.5   2.5   2.3   0.0   0.0   0.1   0.5   0.8   0.6   0.6  1.22  0.74  0.37  0.00  0.00   46.55   51.22    0.33    0.00    1.24
 1991 293    82     3     3     9.5   30.7   16599   19.7   11.1   0.4   0.4   0.3   0.4   0.7   1.2   2.5   2.3   0.0   0.0   0.1   0.5   0.6   0.6   0.6  1.11  0.74  0.37  0.00  0.00   47.15   51.69    0.34    0.00    1.24
 1991 294    83     3     3     9.5   28.9   16599   18.4   10.5   0.4   0.4   0.3   0.4   0.6   1.0   2.5   2.2   0.0   0.0   0.1   0.5   0.6   0.6   0.5  1.01  0.74  0.37  0.00  0.00   47.76   52.17    0.34    0.00    1.24
 1991 295    84     3     3     9.5   27.6   16598   17.5   10.1   0.4   0.4   0.3   0.3   0.5   0.9   2.5   2.2   0.0   0.0   0.1   0.5   0.6   0.6   0.5  0.93  0.75  0.37  0.00  0.00   48.43   52.69    0.34    0.00    1.25
 1991 296    85     3     3     9.5   26.7   16597   16.8    9.8   0.4   0.4   0.3   0.3   0.4   0.7   2.5   2.3   0.0   0.0   0.1   0.5   0.6   0.5   0.5  0.86  0.75  0.37  0.00  0.00   49.17   53.27    0.35    0.00    1.25
 1991 297    86     3     3     9.5   25.9   16597   16.2    9.7   0.3   0.4   0.3   0.3   0.3   0.6   2.5   2.3   0.0   0.0   0.2   0.5   0.6   0.5   0.5  0.81  0.76  0.37  0.00  0.00   49.90   53.77    0.35    0.00    1.25
 1991 298    87     3     3     9.5   25.3   16596   15.9    9.4   0.5   0.4   0.3   0.3   0.3   0.5   2.5   2.3   0.0   0.0   0.1   0.5   0.6   0.5   0.5  0.76  0.76  0.37  0.00  0.00   50.60   54.36    0.35    0.00    1.25
 1991 299    88     3     3     9.5   24.7   16595   15.4    9.3   0.4   0.4   0.3   0.3   0.3   0.4   2.5   2.3   0.0   0.0   0.1   0.5   0.6   0.5   0.5  0.73  0.76  0.37  0.00  0.00   51.26   54.84    0.35    0.00    1.26
 1991 300    89     3     3     9.5   24.3   16595   15.2    9.2   0.4   0.4   0.3   0.3   0.3   0.4   2.5   2.3   0.0   0.0   0.1   0.5   0.6   0.5   0.5  0.70  0.77  0.37  0.00  0.00   51.91   55.32    0.36    0.00    1.26
 1991 301    90     3     3     9.5   24.0   16594   15.0    9.1   0.4   0.4   0.3   0.3   0.3   0.3   2.6   2.3   0.0   0.0   0.1   0.5   0.6   0.5   0.5  0.68  0.77  0.37  0.00  0.00   52.51   55.76    0.36    0.00    1.26
 1991 302    91     3     3     9.5   23.8   16594   14.8    9.0   0.4   0.4   0.3   0.3   0.3   0.3   2.6   2.3   0.0   0.0   0.1   0.5   0.6   0.5   0.5  0.66  0.77  0.37  0.00  0.00   53.12   56.20    0.36    0.00    1.26
 1991 303    92     3     3     9.5   23.8   16593   14.9    8.9   0.2   0.4   0.3   0.3   0.3   0.3   2.6   2.3   0.0   0.0   0.1   0.5   0.6   0.5   0.5  0.64  0.78  0.37  0.00  0.00   53.73   56.65    0.36    0.00    1.26
 1991 304    93     3     3     9.5   23.8   16593   14.7    9.0   0.3   0.3   0.3   0.3   0.3   0.3   2.6   2.3   0.0   0.0   0.2   0.6   0.6   0.5   0.5  0.63  0.78  0.37  0.00  0.00   54.33   56.93    0.36    0.00    1.26
 1991 305    94     3     3     9.5   23.8   16592   14.8    9.1   0.3   0.3   0.3   0.3   0.3   0.3   2.6   2.3   0.0   0.0   0.3   0.6   0.6   0.5   0.5  0.62  0.78  0.37  0.00  0.00   54.90   57.22    0.36    0.00    1.27
 1991 306    95     3     3     9.5   23.9   16591   14.9    9.0   0.3   0.4   0.3   0.3   0.3   0.3   2.6   2.3   0.0   0.0   0.3   0.5   0.6   0.5   0.5  0.61  0.78  0.37  0.00  0.00   55.47   57.63    0.36    0.00    1.27
 1991 307    96     3     3     9.5   23.8   16591   15.1    8.8   0.5   0.4   0.3   0.3   0.3   0.3   2.6   2.3   0.0   0.0   0.2   0.5   0.6   0.5   0.5  0.60  0.77  0.37  0.00  0.00   56.05   58.19    0.36    0.00    1.27
 1991 308    97     3     3     9.5   23.8   16590   15.1    8.7   0.4   0.4   0.3   0.3   0.3   0.3   2.6   2.3   0.0   0.0   0.1   0.5   0.6   0.5   0.5  0.60  0.76  0.37  0.00  0.00   56.66   58.69    0.37    0.00    1.27
 1991 309    98     3     3     9.5   23.8   16590   15.2    8.6   0.4   0.4   0.3   0.3   0.3   0.3   2.7   2.3   0.0   0.0   0.1   0.5   0.6   0.5   0.5  0.59  0.75  0.37  0.00  0.00   57.29   59.20    0.37    0.00    1.28
 1991 310    99     3     3     9.5   23.1   16589   14.5    8.5   0.3   0.4   0.3   0.3   0.3   0.3   2.4   2.3   0.0   0.0   0.1   0.5   0.6   0.5   0.5  0.59  0.71  0.37  0.00  0.00   57.95   59.74    0.37    0.00    1.28
 1991 311   100     3     3     9.5   22.3   16589   13.7    8.6   0.3   0.3   0.3   0.3   0.3   0.3   2.1   2.3   0.0   0.0   0.2   0.6   0.6   0.5   0.5  0.59  0.67  0.37  0.00  0.00   58.62   60.10    0.37    0.00    1.28
 1991 312   101     3     3     9.5   21.7   16588   13.4    8.3   0.5   0.4   0.3   0.3   0.3   0.3   1.9   2.3   0.0   0.0   0.1   0.5   0.6   0.5   0.5  0.58  0.64  0.37  0.00  0.00   59.28   60.73    0.37    0.00    1.28
 1991 313   102     3     3     9.5   21.0   16587   12.8    8.2   0.4   0.4   0.3   0.3   0.3   0.3   1.7   2.3   0.0   0.0   0.1   0.5   0.6   0.5   0.5  0.58  0.61  0.37  0.00  0.00   59.94   61.25    0.37    0.00    1.28
 1991 314   103     3     3     9.5   20.5   16587   12.3    8.1   0.4   0.4   0.3   0.3   0.3   0.3   1.5   2.3   0.0   0.0   0.1   0.5   0.6   0.5   0.5  0.58  0.59  0.37  0.00  0.00   60.58   61.77    0.37    0.00    1.29
 1991 315   104     3     3     9.5   20.0   16586   11.9    8.1   0.4   0.4   0.3   0.3   0.3   0.3   1.3   2.3   0.0   0.0   0.1   0.5   0.6   0.5   0.5  0.58  0.57  0.37  0.00  0.00   61.20   62.28    0.37    0.00    1.29
 1991 316   105     3     3     9.5   19.5   16586   11.5    8.0   0.4   0.4   0.3   0.3   0.3   0.3   1.1   2.3   0.0   0.0   0.1   0.5   0.6   0.5   0.5  0.57  0.56  0.37  0.00  0.00   61.80   62.77    0.37    0.00    1.29
 1991 317   106     3     3     9.5   19.1   16585   11.2    7.9   0.4   0.4   0.3   0.3   0.3   0.3   1.0   2.3   0.0   0.0   0.1   0.5   0.6   0.5   0.5  0.57  0.54  0.37  0.00  0.00   62.36   63.24    0.37    0.00    1.29
 1991 318   107     3     3     9.5   18.8   16585   10.9    7.9   0.4   0.4   0.3   0.3   0.3   0.3   0.9   2.3   0.0   0.0   0.1   0.5   0.6   0.5   0.5  0.57  0.53  0.37  0.00  0.00   62.90   63.70    0.37    0.00    1.30
 1991 319   108     3     3     9.5   18.5   16584   10.7    7.8   0.4   0.4   0.3   0.3   0.3   0.3   0.8   2.3   0.0   0.0   0.1   0.5   0.6   0.5   0.5  0.57  0.52  0.37  0.00  0.00   63.41   64.14    0.37    0.00    1.30
 1991 320   109     3     3     9.5   18.2   16584   10.4    7.8   0.4   0.3   0.3   0.3   0.3   0.3   0.7   2.4   0.0   0.0   0.1   0.5   0.6   0.5   0.5  0.56  0.51  0.37  0.00  0.00   63.89   64.56    0.37    0.00    1.30
 1991 321   110     3     3     9.5   18.0   16583   10.3    7.7   0.4   0.3   0.3   0.3   0.3   0.3   0.6   2.4   0.0   0.0   0.1   0.5   0.6   0.5   0.5  0.56  0.51  0.36  0.00  0.00   64.38   65.01    0.37    0.00    1.30
 1991 322   111     3     3     9.5   17.8   16583   10.2    7.6   0.4   0.4   0.3   0.3   0.3   0.3   0.6   2.4   0.0   0.0   0.1   0.5   0.5   0.5   0.5  0.56  0.50  0.35  0.00  0.00   64.86   65.46    0.37    0.00    1.30
 1991 323   112     3     3     9.5   17.6   16582   10.1    7.5   0.2   0.4   0.4   0.3   0.3   0.3   0.5   2.4   0.0   0.0   0.1   0.4   0.5   0.5   0.5  0.56  0.50  0.34  0.00  0.00   65.35   65.93    0.37    0.00    1.31
 1991 324   113     3     3     9.5   17.5   16582    9.8    7.7   0.2   0.3   0.3   0.3   0.3   0.3   0.5   2.4   0.0   0.0   0.2   0.5   0.6   0.5   0.5  0.56  0.49  0.34  0.00  0.00   65.95   66.26    0.37    0.00    1.31
 1991 325   114     3     3     9.5   17.5   16581   10.0    7.6   0.4   0.4   0.3   0.3   0.3   0.3   0.4   2.4   0.0   0.0   0.1   0.5   0.6   0.5   0.5  0.56  0.48  0.33  0.00  0.00   66.56   66.84    0.37    0.00    1.31
 1991 326   115     3     3     9.5   17.4   16581    9.9    7.5   0.4   0.4   0.3   0.3   0.3   0.3   0.4   2.4   0.0   0.0   0.1   0.5   0.6   0.5   0.5  0.55  0.48  0.32  0.00  0.00   67.18   67.38    0.37    0.00    1.32
 1991 327   116     3     3     9.5   17.3   16580    9.9    7.4   0.4   0.4   0.3   0.3   0.3   0.3   0.3   2.4   0.0   0.0   0.1   0.5   0.6   0.5   0.5  0.55  0.47  0.32  0.00  0.00   67.84   67.98    0.37    0.00    1.32
 1991 328   117     3     3     9.5   17.2   16579    9.9    7.3   0.4   0.4   0.3   0.3   0.3   0.3   0.3   2.4   0.0   0.0   0.1   0.5   0.6   0.5   0.4  0.55  0.46  0.31  0.00  0.00   68.50   68.62    0.37    0.00    1.32
 1991 329   118     3     3     9.5   16.9   16579    9.7    7.3   0.1   0.2   0.3   0.3   0.4   0.3   0.3   2.4   0.0   0.0   0.1   0.5   0.6   0.5   0.4  0.55  0.46  0.30  0.00  0.00   69.13   69.22    0.37    0.00    1.32
 1991 330   119     3     3     9.5   16.9   16578    9.2    7.8   0.1   0.2   0.2   0.3   0.3   0.3   0.3   2.4   0.0   0.0   0.2   0.6   0.7   0.5   0.5  0.55  0.45  0.30  0.00  0.00   69.86   69.37    0.37    0.00    1.32
 1991 331   120     3     3     9.5   17.0   16577    8.9    8.2   0.1   0.2   0.2   0.3   0.3   0.3   0.3   2.3   0.0   0.0   0.3   0.7   0.7   0.5   0.5  0.57  0.45  0.29  0.00  0.00   70.57   69.52    0.37    0.00    1.33
 1991 332   121     3     3    10.0   16.5   16577    8.1    8.5   0.2   0.2   0.2   0.3   0.2   0.2   0.3   2.0   0.0   0.0   0.4   0.7   0.8   0.6   0.5  0.57  0.45  0.29  0.00  0.00   71.24   69.67    0.37    0.00    1.33
 1991 333   122     3     3    10.0   16.5   16576    8.1    8.3   0.5   0.3   0.3   0.3   0.3   0.2   0.3   1.9   0.0   0.0   0.1   0.7   0.7   0.6   0.6  0.58  0.44  0.28  0.00  0.00   71.88   70.03    0.37    0.00    1.33
 1991 334   123     3     3    10.2   16.1   16576    7.6    8.5   0.4   0.3   0.3   0.3   0.3   0.2   0.3   1.7   0.0   0.0   0.2   0.7   0.8   0.6   0.6  0.58  0.44  0.28  0.00  0.00   72.54   70.19    0.38    0.00    1.34
 1991 335   124     3     3    10.2   16.0   16575    7.6    8.4   0.5   0.3   0.3   0.3   0.3   0.3   0.3   1.6   0.0   0.0   0.1   0.7   0.7   0.6   0.6  0.58  0.44  0.27  0.00  0.00   73.27   70.55    0.38    0.00    1.34
 1991 336   125     3     3    10.2   15.6   16574    7.6    8.0   0.4   0.5   0.3   0.3   0.3   0.3   0.3   1.5   0.0   0.0   0.1   0.5   0.7   0.6   0.6  0.58  0.43  0.27  0.00  0.00   74.04   71.14    0.38    0.00    1.34
 1991 337   126     3     3    10.2   15.3   16574    7.5    7.8   0.4   0.4   0.3   0.3   0.3   0.3   0.3   1.4   0.0   0.0   0.1   0.5   0.6   0.6   0.5  0.58  0.43  0.26  0.00  0.00   74.85   71.84    0.38    0.00    1.35
 1991 338   127     3     3    10.2   14.9   16573    7.2    7.7   0.4   0.4   0.3   0.3   0.3   0.3   0.3   1.4   0.0   0.0   0.1   0.5   0.6   0.5   0.5  0.58  0.42  0.26  0.00  0.00   75.66   72.49    0.38    0.00    1.35
 1991 339   128     3     3    10.2   14.7   16572    7.1    7.6   0.3   0.4   0.4   0.3   0.3   0.3   0.3   1.3   0.0   0.0   0.1   0.5   0.6   0.5   0.5  0.58  0.42  0.25  0.00  0.00   76.49   73.17    0.38    0.00    1.35
 1991 340   129     3     3    10.2   14.5   16571    6.6    8.0   0.3   0.3   0.3   0.3   0.3   0.3   0.3   1.2   0.0   0.0   0.2   0.6   0.7   0.5   0.5  0.58  0.42  0.25  0.00  0.00   77.31   73.47    0.38    0.00    1.35
 1991 341   130     3     3    10.2   14.5   16571    6.6    7.9   0.7   0.3   0.3   0.3   0.3   0.3   0.3   1.1   0.0   0.0   0.0   0.7   0.7   0.5   0.5  0.58  0.41  0.24  0.00  0.00   78.17   74.03    0.38    0.00    1.36
 1991 342   131     3     3    10.2   14.2   16570    6.6    7.6   0.3   0.5   0.3   0.3   0.3   0.3   0.3   1.1   0.0   0.0   0.2   0.5   0.6   0.5   0.5  0.58  0.41  0.24  0.00  0.00   79.01   74.72    0.38    0.00    1.36
 1991 343   132     3     3    10.2   14.0   16569    6.5    7.5   0.4   0.4   0.4   0.3   0.3   0.3   0.3   1.0   0.0   0.0   0.1   0.5   0.6   0.5   0.5  0.58  0.41  0.24  0.00  0.00   79.87   75.47    0.38    0.00    1.36
 1991 344   133     3     3    10.2   13.9   16568    5.9    7.9   0.2   0.3   0.3   0.3   0.3   0.3   0.3   1.0   0.0   0.0   0.2   0.6   0.7   0.6   0.5  0.58  0.40  0.23  0.00  0.00   80.66   75.70    0.38    0.00    1.36
 1991 345   134     3     3    10.2   14.0   16568    5.7    8.3   0.3   0.3   0.3   0.3   0.3   0.3   0.3   0.9   0.0   0.0   0.3   0.7   0.8   0.6   0.6  0.58  0.40  0.23  0.00  0.00   81.47   75.90    0.38    0.00    1.37
 1991 346   135     3     3    10.2   14.0   16567    5.8    8.2   0.7   0.3   0.3   0.3   0.3   0.3   0.3   0.9   0.0   0.0   0.0   0.7   0.8   0.6   0.6  0.58  0.40  0.22  0.00  0.00   82.26   76.33    0.38    0.00    1.37
 1991 347   136     3     3    10.2   13.7   16566    5.7    8.0   0.1   0.5   0.3   0.3   0.3   0.3   0.3   0.8   0.0   0.0   0.1   0.5   0.7   0.6   0.6  0.58  0.39  0.22  0.00  0.00   83.03   76.75    0.38    0.00    1.37
 1991 348   137     3     3    10.2   13.7   16566    5.4    8.3   0.1   0.3   0.3   0.3   0.3   0.3   0.3   0.8   0.0   0.0   0.2   0.6   0.8   0.6   0.6  0.58  0.39  0.22  0.00  0.00   83.79   76.95    0.39    0.00    1.38
 1991 349   138     3     3    10.2   13.7   16565    5.2    8.6   0.2   0.3   0.3   0.3   0.3   0.3   0.3   0.7   0.0   0.0   0.3   0.7   0.8   0.6   0.6  0.59  0.39  0.21  0.00  0.00   84.52   77.10    0.40    0.00    1.38
 1991 350   139     3     3    10.2   13.8   16564    5.1    8.7   0.2   0.3   0.3   0.3   0.3   0.3   0.3   0.7   0.0   0.0   0.4   0.8   0.8   0.7   0.6  0.59  0.39  0.21  0.00  0.00   85.25   77.28    0.40    0.00    1.38
 1991 351   140     3     3    10.2   13.9   16564    5.1    8.9   0.3   0.3   0.3   0.3   0.3   0.3   0.3   0.6   0.0   0.0   0.4   0.8   0.8   0.7   0.6  0.60  0.39  0.21  0.00  0.00   85.96   77.46    0.41    0.00    1.39
 1991 352   141     3     3    10.2   14.0   16563    5.3    8.7   0.8   0.3   0.3   0.3   0.2   0.2   0.3   0.6   0.0   0.0   0.0   0.8   0.9   0.7   0.7  0.60  0.38  0.20  0.00  0.00   86.71   77.92    0.42    0.00    1.39
 1991 353   142     3     3    10.2   13.6   16562    5.0    8.6   0.0   0.3   0.3   0.3   0.3   0.3   0.3   0.6   0.0   0.0   0.1   0.8   0.8   0.7   0.6  0.60  0.38  0.20  0.00  0.00   87.48   78.14    0.43    0.00    1.40
 1991 354   143     3     3    10.2   13.5   16562    4.7    8.9   0.0   0.3   0.3   0.3   0.3   0.2   0.3   0.6   0.0   0.0   0.3   0.8   0.8   0.7   0.7  0.61  0.39  0.20  0.00  0.00   88.29   78.28    0.44    0.00    1.40
 1991 355   144     3     3    10.4   13.6   16561    4.7    8.9   0.5   0.3   0.3   0.3   0.3   0.2   0.2   0.5   0.0   0.0   0.0   0.8   0.9   0.7   0.7  0.61  0.40  0.20  0.00  0.00   89.16   78.66    0.45    0.00    1.40
 1991 356   145     3     3    10.4   13.5   16560    4.6    8.9   0.3   0.3   0.3   0.3   0.3   0.2   0.3   0.5   0.0   0.0   0.2   0.8   0.8   0.7   0.7  0.62  0.40  0.20  0.00  0.00   90.07   78.87    0.46    0.00    1.41
 1991 357   146     3     3    10.5   13.4   16559    5.0    8.4   0.4   0.5   0.3   0.3   0.3   0.3   0.3   0.4   0.0   0.0   0.0   0.5   0.8   0.7   0.7  0.62  0.40  0.20  0.00  0.00   90.98   79.53    0.46    0.00    1.41
 1991 358   147     3     3    10.6   13.2   16559    4.4    8.8   0.3   0.3   0.3   0.3   0.2   0.2   0.2   0.4   0.0   0.0   0.2   0.6   0.8   0.7   0.7  0.63  0.41  0.21  0.00  0.00   91.87   79.66    0.47    0.00    1.41
 1991 359   148     3     3    10.7   13.3   16558    4.5    8.8   0.6   0.3   0.3   0.3   0.3   0.2   0.2   0.3   0.0   0.0   0.0   0.7   0.8   0.7   0.7  0.63  0.42  0.21  0.00  0.00   92.77   80.03    0.48    0.00    1.41
 1991 360   149     3     3    10.7   13.1   16557    4.6    8.5   0.3   0.5   0.3   0.3   0.3   0.2   0.3   0.3   0.0   0.0   0.2   0.5   0.8   0.7   0.7  0.63  0.43  0.21  0.00  0.00   93.66   80.46    0.48    0.00    1.42
 1991 361   150     3     3    10.7   12.9   16556    4.6    8.3   0.3   0.4   0.3   0.3   0.3   0.2   0.3   0.3   0.0   0.0   0.3   0.5   0.7   0.6   0.7  0.63  0.44  0.21  0.00  0.00   94.50   80.98    0.48    0.00    1.42
 1991 362   151     3     3    10.7   12.8   16556    4.8    8.0   0.6   0.4   0.3   0.3   0.3   0.3   0.3   0.3   0.0   0.0   0.0   0.5   0.6   0.6   0.6  0.62  0.44  0.21  0.00  0.00   95.33   81.77    0.48    0.00    1.42
 1991 363   152     3     3    10.7   12.5   16555    4.6    7.9   0.3   0.4   0.3   0.3   0.3   0.3   0.3   0.3   0.0   0.0   0.1   0.5   0.6   0.6   0.6  0.62  0.43  0.21  0.00  0.00   96.15   82.34    0.48    0.00    1.43
 1991 364   153     3     3    10.7   12.4   16554    4.6    7.8   0.4   0.4   0.3   0.3   0.3   0.3   0.3   0.3   0.0   0.0   0.1   0.5   0.6   0.6   0.6  0.62  0.43  0.21  0.00  0.00   96.95   82.97    0.48    0.00    1.43
 1991 365   154     3     3    10.7   12.4   16554    4.6    7.7   0.4   0.4   0.3   0.3   0.3   0.3   0.3   0.3   0.0   0.0   0.1   0.5   0.6   0.6   0.6  0.61  0.43  0.21  0.00  0.00   97.78   83.60    0.48    0.00    1.43
 1992 001   155     3     3    10.7   12.4   16553    4.7    7.7   0.4   0.4   0.3   0.3   0.3   0.3   0.3   0.3   0.0   0.0   0.1   0.5   0.6   0.5   0.6  0.61  0.43  0.20  0.00  0.00   98.65   84.28    0.48    0.00    1.44
 1992 002   156     3     3    10.7   12.3   16552    4.7    7.6   0.2   0.5   0.4   0.3   0.3   0.3   0.3   0.3   0.0   0.0   0.1   0.5   0.6   0.5   0.5  0.61  0.43  0.20  0.00  0.00   99.53   84.96    0.48    0.00    1.44
 1992 003   157     3     3    10.7   12.4   16551    4.5    7.9   0.3   0.3   0.3   0.3   0.3   0.3   0.3   0.3   0.0   0.0   0.2   0.6   0.6   0.5   0.5  0.61  0.43  0.20  0.00  0.00  100.43   85.40    0.48    0.00    1.44
 1992 004   158     3     3    10.7   12.4   16551    4.6    7.8   0.6   0.3   0.3   0.3   0.3   0.3   0.3   0.3   0.0   0.0   0.0   0.7   0.6   0.5   0.5  0.61  0.43  0.20  0.00  0.00  101.31   86.04    0.48    0.00    1.44
 1992 005   159     3     3    10.7   12.3   16550    4.7    7.6   0.3   0.5   0.3   0.3   0.3   0.3   0.3   0.3   0.0   0.0   0.1   0.5   0.6   0.5   0.5  0.61  0.43  0.19  0.00  0.00  102.17   86.70    0.48    0.00    1.45
 1992 006   160     3     3    10.7   12.2   16549    4.6    7.6   0.5   0.4   0.3   0.3   0.3   0.3   0.3   0.3   0.0   0.0   0.1   0.5   0.6   0.5   0.5  0.61  0.43  0.19  0.00  0.00  103.00   87.35    0.48    0.00    1.45
 1992 007   161     3     3    10.7   12.2   16548    4.6    7.6   0.4   0.4   0.3   0.3   0.3   0.3   0.3   0.3   0.0   0.0   0.1   0.5   0.6   0.5   0.5  0.60  0.43  0.19  0.00  0.00  103.83   87.96    0.48    0.00    1.45
 1992 008   162     3     3    10.7   12.2   16548    4.6    7.6   0.4   0.4   0.3   0.3   0.3   0.3   0.3   0.3   0.0   0.0   0.1   0.5   0.6   0.5   0.5  0.60  0.43  0.19  0.00  0.00  104.66   88.59    0.48    0.00    1.45
 1992 009   163     3     3    10.7   12.2   16547    4.7    7.5   0.4   0.4   0.3   0.3   0.3   0.3   0.3   0.3   0.0   0.0   0.1   0.5   0.6   0.5   0.5  0.60  0.43  0.19  0.00  0.00  105.51   89.25    0.48    0.00    1.46
 1992 010   164     3     3    10.7   13.0   16546    5.3    7.7   0.6   0.6   0.4   0.3   0.3   0.3   0.3   0.3   0.0   0.0   0.1   0.5   0.7   0.5   0.5  0.62  0.43  0.19  0.00  0.00  106.37   89.92    0.48    0.00    1.46
 1992 011   165     3     3    10.7   13.9   16546    6.0    7.9   0.7   0.8   0.5   0.4   0.4   0.3   0.3   0.3   0.0   0.0   0.1   0.4   0.7   0.5   0.5  0.64  0.43  0.18  0.00  0.00  107.22   90.62    0.48    0.00    1.46

*DSSAT Cropping System Model Ver. 4.0.2.000               Aug 02, 2016; 15:29:24

*RUN   3        : UYMZ                    
 MODEL          : MZCER040 - Maize           
 EXPERIMENT     : UYMZ0107 MZ    late to create DSS                             
 TREATMENT  1   : UYMZ                    

@YEAR DOY   DAS  NAPC  NI#M    NLCC   NIAD    NOAD   NITD   NHTD  NI1D  NI2D  NI3D  NI4D  NI5D  NI6D  NI7D  NI8D  NI9D  NI10  NH1D  NH2D  NH3D  NH4D  NH5D  NH6D  NH7D  NH8D  NH9D  NH10    NMNC    NITC    NDNC    NIMC    AMLC
 1992 211     0     0     0     0.0   99.1   16646   75.9   23.1  15.6  15.2  15.1   8.6   4.6   0.0   0.1   0.1   0.0   0.0   1.0   1.4   1.5   1.5   1.5  1.50  1.47  1.46  0.00  0.00    0.33    1.14    0.00    0.00    0.00
 1992 212     1     0     0     0.0   99.5   16645   77.0   22.5  15.9  15.3  15.2   8.6   4.6   0.0   0.1   0.1   0.0   0.0   0.6   1.3   1.4   1.4   1.4  1.50  1.44  1.41  0.00  0.00    0.69    2.19    0.00    0.00    0.00
 1992 213     2     0     0     0.0   99.8   16645   78.0   21.9  16.0  15.5  15.3   8.7   4.7   0.1   0.1   0.1   0.0   0.0   0.4   1.2   1.4   1.4   1.4  1.51  1.40  1.37  0.00  0.00    1.07    3.17    0.00    0.00    0.00
 1992 214     3     0     0     0.0  100.2   16645   78.9   21.3   6.6  15.3  18.9   8.8   4.7   0.1   0.2   0.2   0.0   0.0   0.3   1.1   1.4   1.3   1.3  1.51  1.37  1.33  0.00  0.00    1.45    4.06    0.00    0.00    0.00
 1992 215     4     3     3     0.0  103.5   16644   81.1   22.4   9.4  14.8  19.2   8.9   4.8   0.1   0.2   0.2   0.0   0.0   2.7   1.1   1.4   1.3   1.3  1.51  1.34  1.29  0.00  0.00    1.82    4.77    0.00    0.00    0.08
 1992 216     5     3     3     0.0  103.8   16644   82.5   21.3  10.6  14.8  19.3   9.0   4.8   0.1   0.3   0.3   0.0   0.0   1.5   1.0   1.4   1.3   1.3  1.51  1.32  1.26  0.00  0.00    2.20    6.18    0.00    0.00    0.17
 1992 217     6     3     3     0.0  104.1   16643   83.5   20.5  11.2  14.8  19.4   9.2   4.9   0.1   0.3   0.3   0.0   0.0   0.8   1.0   1.3   1.2   1.2  1.52  1.29  1.22  0.00  0.00    2.56    7.23    0.00    0.00    0.24
 1992 218     7     3     3     0.0  104.4   16643   84.4   20.0  11.5  14.9  19.4   9.3   4.9   0.1   0.3   0.4   0.0   0.0   0.4   0.9   1.3   1.2   1.2  1.52  1.26  1.19  0.00  0.00    2.91    8.09    0.00    0.00    0.30
 1992 219     8     3     3     0.0  104.7   16643   85.2   19.5  11.7  15.0  19.4   9.4   4.9   0.1   0.4   0.4   0.0   0.0   0.1   0.9   1.3   1.2   1.2  1.52  1.24  1.15  0.00  0.00    3.28    8.88    0.00    0.00    0.37
 1992 220     9     3     3     0.0  105.1   16642   86.0   19.1  11.8  15.1  19.4   9.5   5.0   0.2   0.4   0.4   0.0   0.0   0.0   0.8   1.3   1.1   1.1  1.52  1.21  1.12  0.00  0.00    3.73    9.67    0.00    0.00    0.41
 1992 221    10     3     3     0.0  105.5   16642   86.8   18.8  11.9  15.2  19.4   9.7   5.0   0.2   0.4   0.5   0.0   0.0   0.0   0.8   1.3   1.1   1.1  1.53  1.18  1.09  0.00  0.00    4.22   10.45    0.00    0.00    0.44
 1992 222    11     3     3     0.0  106.0   16641   87.5   18.5  12.0  15.3  19.5   9.8   5.1   0.2   0.5   0.5   0.0   0.0   0.1   0.7   1.3   1.1   1.1  1.53  1.16  1.06  0.00  0.00    4.70   11.20    0.00    0.00    0.45
 1992 223    12     3     3     0.0  106.5   16641   88.3   18.2  12.1  15.3  19.5   9.9   5.1   0.2   0.5   0.5   0.0   0.0   0.1   0.7   1.3   1.0   1.1  1.53  1.14  1.02  0.00  0.00    5.18   11.95    0.00    0.00    0.47
 1992 224    13     3     3     0.0  106.9   16640   89.0   17.9  12.3  15.4  19.6  10.0   5.2   0.2   0.5   0.6   0.0   0.0   0.1   0.7   1.2   1.0   1.0  1.53  1.11  1.00  0.00  0.00    5.65   12.68    0.00    0.00    0.48
 1992 225    14     3     3     0.0  107.4   16640   89.7   17.7  12.4  15.4  19.6  10.1   5.2   0.2   0.6   0.6   0.0   0.0   0.1   0.6   1.2   1.0   1.0  1.54  1.09  0.97  0.00  0.00    6.09   13.34    0.00    0.00    0.48
 1992 226    15     3     3     0.0  107.8   16640   90.3   17.5  12.5  15.5  19.7  10.2   5.3   0.3   0.6   0.6   0.0   0.0   0.1   0.6   1.2   1.0   1.0  1.54  1.07  0.94  0.00  0.00    6.51   13.99    0.00    0.00    0.48
[...]
 1992 297    86     3     3     0.0   58.6   16601   46.5   12.2   0.7   1.7   3.8   7.5   4.7   1.4   2.0   1.7   0.0   0.0   0.1   0.6   0.8   0.6   0.5  1.59  0.44  0.20  0.00  0.00   45.80   56.08    0.00    0.00    0.75
 1992 298    87     3     3     0.0   54.1   16600   42.3   11.8   0.7   1.4   2.9   6.8   4.3   1.4   2.0   1.7   0.0   0.0   0.1   0.6   0.8   0.5   0.5  1.54  0.43  0.20  0.00  0.00   46.43   56.69    0.00    0.00    0.76
 1992 299    88     3     3     0.0   48.5   16599   37.2   11.3   0.6   1.0   1.9   5.9   3.8   1.3   2.0   1.7   0.0   0.0   0.1   0.5   0.7   0.5   0.5  1.47  0.43  0.20  0.00  0.00   47.12   57.33    0.00    0.00    0.76
 1992 300    89     3     3     0.0   46.9   16599   35.7   11.2   0.6   1.0   1.7   5.5   3.6   1.3   2.0   1.7   0.0   0.0   0.1   0.5   0.7   0.5   0.5  1.43  0.43  0.20  0.00  0.00   47.84   57.97    0.00    0.00    0.76
 1992 301    90     3     3     0.0   39.4   16598   28.9   10.4   0.4   0.5   0.7   4.2   2.9   1.1   2.1   1.7   0.0   0.0   0.1   0.5   0.6   0.5   0.5  1.31  0.43  0.19  0.00  0.00   48.59   58.65    0.00    0.00    0.77
 1992 302    91     3     3     0.0   34.3   16597   24.5    9.8   0.4   0.4   0.3   3.2   2.2   1.0   2.1   1.7   0.0   0.0   0.1   0.5   0.6   0.5   0.5  1.18  0.42  0.19  0.00  0.00   49.33   59.32    0.00    0.00    0.77
 1992 303    92     3     3     0.0   31.8   16596   22.4    9.5   0.4   0.4   0.3   2.6   1.9   0.8   2.1   1.7   0.0   0.0   0.1   0.5   0.6   0.5   0.5  1.10  0.42  0.19  0.00  0.00   50.02   59.90    0.00    0.00    0.77
 1992 304    93     3     3     0.0   28.9   16596   19.9    9.0   0.4   0.4   0.3   2.0   1.5   0.7   2.1   1.7   0.0   0.0   0.1   0.5   0.6   0.5   0.5  1.01  0.42  0.19  0.00  0.00   50.65   60.44    0.00    0.00    0.77
 1992 305    94     3     3     0.0   26.6   16595   17.9    8.6   0.4   0.4   0.3   1.5   1.2   0.6   2.1   1.7   0.0   0.0   0.1   0.4   0.6   0.5   0.5  0.93  0.42  0.19  0.00  0.00   51.23   60.95    0.00    0.00    0.77
 1992 306    95     3     3     0.0   24.7   16595   16.4    8.3   0.4   0.4   0.3   1.2   1.0   0.5   2.1   1.7   0.0   0.0   0.1   0.4   0.6   0.5   0.5  0.86  0.42  0.18  0.00  0.00   51.78   61.42    0.00    0.00    0.78
 1992 307    96     3     3     0.0   23.3   16594   15.3    8.0   0.2   0.4   0.4   0.9   0.8   0.4   2.1   1.8   0.0   0.0   0.1   0.4   0.5   0.5   0.5  0.81  0.41  0.18  0.00  0.00   52.28   61.87    0.00    0.00    0.78
 1992 308    97     3     3     0.0   22.3   16594   14.3    8.1   0.1   0.2   0.4   0.7   0.6   0.4   2.1   1.8   0.0   0.0   0.2   0.5   0.6   0.5   0.5  0.76  0.41  0.18  0.00  0.00   52.94   62.22    0.00    0.00    0.78
 1992 309    98     3     3     0.0   21.7   16593   13.5    8.2   0.2   0.2   0.2   0.6   0.5   0.3   2.2   1.8   0.0   0.0   0.3   0.6   0.7   0.5   0.5  0.73  0.41  0.18  0.00  0.00   53.62   62.50    0.00    0.00    0.79
 1992 310    99     3     3     0.0   21.2   16592   13.4    7.9   0.5   0.4   0.3   0.5   0.4   0.3   2.2   1.8   0.0   0.0   0.1   0.5   0.7   0.5   0.5  0.70  0.41  0.18  0.00  0.00   54.27   63.08    0.00    0.00    0.79
 1992 311   100     3     3     0.0   20.7   16592   13.1    7.6   0.4   0.4   0.3   0.4   0.4   0.3   2.2   1.8   0.0   0.0   0.1   0.5   0.6   0.5   0.5  0.67  0.41  0.18  0.00  0.00   54.88   63.56    0.00    0.00    0.79
 1992 312   101     3     3     0.0   20.4   16591   12.9    7.5   0.4   0.4   0.3   0.3   0.3   0.3   2.2   1.8   0.0   0.0   0.1   0.5   0.6   0.5   0.5  0.65  0.41  0.17  0.00  0.00   55.45   64.00    0.00    0.00    0.79
 1992 313   102     3     3     0.0   20.2   16591   12.7    7.4   0.3   0.3   0.3   0.3   0.3   0.3   2.2   1.8   0.0   0.0   0.1   0.5   0.6   0.5   0.5  0.64  0.40  0.17  0.00  0.00   55.96   64.41    0.00    0.00    0.80
 1992 314   103     3     3     0.0   20.1   16590   12.8    7.3   0.4   0.3   0.3   0.3   0.3   0.3   2.2   1.8   0.0   0.0   0.1   0.5   0.6   0.5   0.5  0.62  0.40  0.17  0.00  0.00   56.50   64.82    0.00    0.00    0.80
 1992 315   104     3     3     0.0   20.2   16590   12.9    7.3   0.4   0.4   0.3   0.3   0.3   0.3   2.2   1.8   0.0   0.0   0.1   0.5   0.6   0.5   0.5  0.61  0.40  0.17  0.00  0.00   57.08   65.30    0.00    0.00    0.80
 1992 316   105     3     3     0.0   20.2   16589   13.0    7.2   0.4   0.4   0.3   0.3   0.3   0.3   2.2   1.8   0.0   0.0   0.1   0.5   0.6   0.5   0.5  0.60  0.40  0.17  0.00  0.00   57.68   65.80    0.00    0.00    0.80
 1992 317   106     3     3     0.0   20.2   16589   13.0    7.1   0.4   0.4   0.3   0.3   0.3   0.3   2.2   1.8   0.0   0.0   0.1   0.5   0.6   0.5   0.5  0.60  0.40  0.17  0.00  0.00   58.30   66.33    0.00    0.00    0.81
 1992 318   107     3     3     0.0   20.2   16588   13.1    7.0   0.4   0.4   0.3   0.3   0.3   0.3   2.3   1.8   0.0   0.0   0.1   0.4   0.6   0.5   0.5  0.59  0.40  0.17  0.00  0.00   58.94   66.90    0.00    0.00    0.81
 1992 319   108     3     3     0.0   20.1   16587   13.2    6.9   0.4   0.4   0.3   0.3   0.3   0.3   2.3   1.8   0.0   0.0   0.1   0.4   0.6   0.5   0.4  0.59  0.40  0.17  0.00  0.00   59.55   67.47    0.00    0.00    0.81
 1992 320   109     3     3     0.0   19.5   16587   12.6    6.8   0.1   0.3   0.4   0.4   0.3   0.3   2.1   1.8   0.0   0.0   0.1   0.4   0.5   0.5   0.4  0.58  0.40  0.16  0.00  0.00   60.13   68.03    0.00    0.00    0.82
 1992 321   110     3     3     0.0   19.1   16586   11.7    7.3   0.1   0.3   0.3   0.3   0.3   0.3   1.8   1.8   0.0   0.0   0.2   0.5   0.7   0.5   0.4  0.58  0.39  0.16  0.00  0.00   60.90   68.24    0.00    0.00    0.82
 1992 322   111     3     3     0.0   18.8   16586   11.6    7.2   0.5   0.4   0.3   0.3   0.3   0.3   1.6   1.8   0.0   0.0   0.1   0.5   0.7   0.5   0.4  0.57  0.39  0.16  0.00  0.00   61.66   68.85    0.00    0.00    0.82
 1992 323   112     3     3     0.0   18.2   16585   11.1    7.1   0.3   0.4   0.3   0.3   0.3   0.3   1.4   1.8   0.0   0.0   0.1   0.5   0.6   0.5   0.4  0.57  0.39  0.16  0.00  0.00   62.37   69.38    0.00    0.00    0.82
 1992 324   113     3     3     0.0   17.8   16584   10.7    7.1   0.4   0.4   0.3   0.3   0.3   0.3   1.3   1.8   0.0   0.0   0.1   0.5   0.6   0.5   0.4  0.57  0.39  0.16  0.00  0.00   63.05   69.92    0.00    0.00    0.83
 1992 325   114     3     3     0.0   17.4   16584   10.3    7.1   0.4   0.4   0.3   0.3   0.3   0.3   1.1   1.9   0.0   0.0   0.1   0.5   0.6   0.5   0.4  0.56  0.39  0.16  0.00  0.00   63.72   70.44    0.00    0.00    0.83
 1992 326   115     3     3     0.0   17.1   16583   10.0    7.0   0.4   0.4   0.3   0.3   0.3   0.3   1.0   1.9   0.0   0.0   0.1   0.5   0.6   0.5   0.4  0.56  0.39  0.16  0.00  0.00   64.40   70.98    0.00    0.00    0.83
 1992 327   116     3     3     0.0   16.8   16582    9.8    7.0   0.4   0.4   0.3   0.3   0.3   0.3   0.9   1.9   0.0   0.0   0.1   0.5   0.6   0.5   0.4  0.56  0.39  0.16  0.00  0.00   65.08   71.51    0.00    0.00    0.83
 1992 328   117     3     3     0.0   16.5   16582    9.5    7.0   0.4   0.4   0.3   0.3   0.3   0.3   0.8   1.9   0.0   0.0   0.1   0.5   0.6   0.5   0.4  0.56  0.38  0.16  0.00  0.00   65.74   72.03    0.00    0.00    0.83
 1992 329   118     3     3     0.0   16.3   16581    9.3    7.0   0.4   0.4   0.3   0.3   0.3   0.3   0.7   1.9   0.0   0.0   0.1   0.5   0.6   0.5   0.4  0.56  0.38  0.16  0.00  0.00   66.36   72.53    0.00    0.00    0.84
 1992 330   119     3     3     0.0   16.0   16581    9.1    6.9   0.4   0.4   0.3   0.3   0.3   0.3   0.6   1.9   0.0   0.0   0.1   0.5   0.6   0.5   0.4  0.55  0.38  0.15  0.00  0.00   66.94   73.02    0.00    0.00    0.84
 1992 331   120     3     3     0.0   15.8   16580    9.0    6.9   0.4   0.4   0.3   0.3   0.3   0.3   0.5   1.9   0.0   0.0   0.1   0.5   0.6   0.5   0.4  0.55  0.38  0.15  0.00  0.00   67.48   73.48    0.00    0.00    0.84
 1992 332   121     3     3     0.0   15.6   16580    8.8    6.8   0.4   0.4   0.3   0.3   0.3   0.3   0.5   1.9   0.0   0.0   0.1   0.5   0.6   0.5   0.4  0.55  0.38  0.15  0.00  0.00   68.01   73.94    0.00    0.00    0.84
 1992 333   122     3     3     0.0   15.5   16579    8.7    6.7   0.2   0.4   0.4   0.3   0.3   0.3   0.4   1.9   0.0   0.0   0.1   0.4   0.6   0.5   0.4  0.55  0.37  0.15  0.00  0.00   68.54   74.44    0.00    0.00    0.85
 1992 334   123     3     3     0.0   15.4   16578    8.5    7.0   0.2   0.3   0.3   0.3   0.3   0.3   0.4   1.9   0.0   0.0   0.2   0.6   0.6   0.5   0.4  0.55  0.37  0.15  0.00  0.00   69.21   74.77    0.00    0.00    0.85
 1992 335   124     3     3     0.0   15.5   16578    8.7    6.8   0.4   0.4   0.3   0.3   0.3   0.3   0.3   1.9   0.0   0.0   0.1   0.5   0.6   0.5   0.4  0.55  0.37  0.15  0.00  0.00   69.88   75.45    0.00    0.00    0.85
 1992 336   125     3     3     0.0   15.5   16577    8.3    7.2   0.3   0.3   0.3   0.3   0.3   0.3   0.3   1.9   0.0   0.0   0.2   0.6   0.7   0.5   0.4  0.55  0.36  0.15  0.00  0.00   70.61   75.65    0.00    0.00    0.86
 1992 337   126     3     3     0.0   15.6   16577    8.5    7.1   0.6   0.4   0.3   0.3   0.3   0.3   0.3   1.9   0.0   0.0   0.1   0.5   0.7   0.6   0.4  0.54  0.36  0.15  0.00  0.00   71.35   76.22    0.00    0.00    0.86
 1992 338   127     3     3     0.0   15.2   16576    8.3    6.9   0.4   0.4   0.3   0.3   0.3   0.3   0.3   1.8   0.0   0.0   0.1   0.5   0.6   0.5   0.4  0.54  0.35  0.15  0.00  0.00   72.07   76.80    0.00    0.00    0.86
 1992 339   128     3     3     0.0   14.9   16575    8.1    6.9   0.4   0.4   0.3   0.3   0.3   0.3   0.3   1.7   0.0   0.0   0.1   0.5   0.6   0.5   0.4  0.54  0.35  0.15  0.00  0.00   72.79   77.40    0.00    0.00    0.86
 1992 340   129     3     3     0.0   14.7   16575    7.8    6.8   0.4   0.4   0.3   0.3   0.3   0.3   0.3   1.6   0.0   0.0   0.1   0.5   0.6   0.5   0.4  0.54  0.35  0.15  0.00  0.00   73.51   77.98    0.00    0.00    0.87
 1992 341   130     3     3     0.0   14.4   16574    7.6    6.8   0.2   0.4   0.4   0.3   0.3   0.3   0.3   1.5   0.0   0.0   0.1   0.5   0.6   0.5   0.4  0.54  0.34  0.15  0.00  0.00   74.22   78.56    0.00    0.00    0.87
 1992 342   131     3     3     0.0   14.2   16573    7.0    7.2   0.2   0.3   0.3   0.3   0.3   0.3   0.3   1.4   0.0   0.0   0.2   0.6   0.7   0.6   0.4  0.54  0.34  0.15  0.00  0.00   74.96   78.77    0.00    0.00    0.87
 1992 343   132     3     3     0.0   14.2   16572    7.1    7.2   0.6   0.3   0.3   0.3   0.3   0.3   0.3   1.4   0.0   0.0   0.0   0.7   0.7   0.5   0.5  0.54  0.34  0.15  0.00  0.00   75.72   79.28    0.00    0.00    0.87
 1992 344   133     3     3     0.0   13.9   16572    7.0    6.9   0.3   0.5   0.3   0.3   0.3   0.3   0.3   1.3   0.0   0.0   0.1   0.5   0.6   0.5   0.5  0.54  0.33  0.15  0.00  0.00   76.47   79.93    0.00    0.00    0.88
 1992 345   134     3     3     0.0   13.6   16571    6.8    6.8   0.5   0.4   0.3   0.3   0.3   0.3   0.3   1.2   0.0   0.0   0.1   0.5   0.6   0.5   0.5  0.54  0.33  0.14  0.00  0.00   77.21   80.56    0.00    0.00    0.88
 1992 346   135     3     3     0.0   13.4   16570    6.6    6.8   0.4   0.4   0.3   0.3   0.3   0.3   0.3   1.1   0.0   0.0   0.1   0.5   0.6   0.5   0.5  0.54  0.32  0.14  0.00  0.00   77.94   81.15    0.00    0.00    0.88
 1992 347   136     3     3     0.0   13.2   16570    6.5    6.8   0.4   0.4   0.3   0.3   0.3   0.3   0.3   1.1   0.0   0.0   0.1   0.5   0.6   0.5   0.5  0.54  0.32  0.14  0.00  0.00   78.65   81.74    0.00    0.00    0.89
 1992 348   137     3     3     0.0   13.0   16569    6.3    6.7   0.4   0.4   0.3   0.3   0.3   0.3   0.3   1.0   0.0   0.0   0.1   0.5   0.6   0.5   0.5  0.53  0.32  0.14  0.00  0.00   79.36   82.32    0.00    0.00    0.89
 1992 349   138     3     3     0.0   12.8   16568    6.2    6.7   0.4   0.4   0.3   0.3   0.3   0.3   0.3   0.9   0.0   0.0   0.1   0.5   0.6   0.5   0.5  0.53  0.31  0.14  0.00  0.00   80.06   82.92    0.00    0.00    0.89
 1992 350   139     3     3     0.0   12.6   16568    6.0    6.6   0.4   0.4   0.3   0.3   0.3   0.3   0.3   0.9   0.0   0.0   0.1   0.4   0.6   0.5   0.5  0.53  0.31  0.14  0.00  0.00   80.72   83.52    0.00    0.00    0.89
 1992 351   140     3     3     0.0   12.4   16567    5.9    6.5   0.4   0.4   0.3   0.3   0.3   0.3   0.3   0.8   0.0   0.0   0.1   0.4   0.6   0.5   0.5  0.53  0.30  0.14  0.00  0.00   81.35   84.11    0.00    0.00    0.90
 1992 352   141     3     3     0.0   12.2   16567    5.8    6.4   0.2   0.4   0.4   0.3   0.3   0.3   0.3   0.8   0.0   0.0   0.1   0.4   0.6   0.5   0.5  0.53  0.30  0.14  0.00  0.00   81.95   84.69    0.00    0.00    0.90
 1992 353   142     3     3     0.0   12.1   16566    5.5    6.7   0.2   0.3   0.3   0.3   0.3   0.3   0.3   0.7   0.0   0.0   0.2   0.5   0.6   0.5   0.4  0.53  0.29  0.14  0.00  0.00   82.67   85.06    0.00    0.00    0.90
 1992 354   143     3     3     0.0   12.2   16565    5.7    6.5   0.6   0.4   0.3   0.3   0.3   0.3   0.3   0.7   0.0   0.0   0.0   0.5   0.6   0.5   0.4  0.53  0.29  0.13  0.00  0.00   83.39   85.82    0.00    0.00    0.90
 1992 355   144     3     3     0.0   12.0   16565    5.5    6.5   0.3   0.4   0.3   0.3   0.3   0.3   0.3   0.6   0.0   0.0   0.2   0.5   0.6   0.5   0.4  0.53  0.29  0.13  0.00  0.00   84.10   86.38    0.00    0.00    0.91
 1992 356   145     3     3     0.0   11.9   16564    5.5    6.4   0.5   0.4   0.3   0.3   0.3   0.3   0.3   0.6   0.0   0.0   0.1   0.5   0.6   0.5   0.4  0.53  0.28  0.13  0.00  0.00   84.81   87.08    0.00    0.00    0.91
 1992 357   146     3     3     0.0   11.7   16563    5.4    6.3   0.4   0.4   0.3   0.3   0.3   0.3   0.3   0.6   0.0   0.0   0.1   0.4   0.6   0.5   0.4  0.53  0.28  0.13  0.00  0.00   85.49   87.71    0.00    0.00    0.91
 1992 358   147     3     3     0.0   11.6   16563    5.2    6.3   0.3   0.4   0.3   0.3   0.3   0.3   0.3   0.5   0.0   0.0   0.3   0.4   0.6   0.5   0.4  0.53  0.28  0.13  0.00  0.00   86.18   88.28    0.00    0.00    0.91
 1992 359   148     3     3     0.0   11.5   16562    5.4    6.1   0.5   0.3   0.4   0.3   0.3   0.3   0.3   0.5   0.0   0.0   0.0   0.4   0.6   0.5   0.4  0.53  0.27  0.13  0.00  0.00   86.84   89.04    0.00    0.00    0.92
 1992 360   149     3     3     0.0   11.3   16561    4.9    6.5   0.2   0.3   0.3   0.3   0.3   0.3   0.3   0.5   0.0   0.0   0.2   0.6   0.6   0.4   0.4  0.53  0.27  0.13  0.00  0.00   87.59   89.41    0.00    0.00    0.92
 1992 361   150     3     3     0.0   11.5   16561    5.2    6.3   0.6   0.4   0.3   0.3   0.3   0.3   0.3   0.5   0.0   0.0   0.1   0.5   0.6   0.4   0.4  0.53  0.26  0.12  0.00  0.00   88.31   90.12    0.00    0.00    0.92
 1992 362   151     3     3     0.0   11.2   16560    5.0    6.3   0.4   0.4   0.3   0.3   0.3   0.3   0.3   0.4   0.0   0.0   0.1   0.5   0.6   0.4   0.4  0.53  0.26  0.12  0.00  0.00   89.01   90.67    0.00    0.00    0.92
 1992 363   152     3     3     0.0   11.2   16560    5.0    6.2   0.4   0.4   0.3   0.3   0.3   0.3   0.3   0.4   0.0   0.0   0.1   0.5   0.6   0.4   0.4  0.53  0.26  0.12  0.00  0.00   89.70   91.28    0.00    0.00    0.92
 1992 364   153     3     3     0.0   11.1   16559    4.9    6.2   0.4   0.4   0.3   0.3   0.3   0.3   0.3   0.4   0.0   0.0   0.1   0.5   0.6   0.4   0.4  0.53  0.25  0.12  0.00  0.00   90.37   91.88    0.00    0.00    0.93
 1992 365   154     3     3     0.0   10.9   16558    4.8    6.1   0.4   0.4   0.3   0.3   0.3   0.3   0.3   0.4   0.0   0.0   0.1   0.4   0.6   0.4   0.4  0.52  0.25  0.12  0.00  0.00   91.01   92.45    0.00    0.00    0.93
 1992 366   155     3     3     0.0   10.8   16558    4.7    6.1   0.1   0.3   0.4   0.3   0.3   0.3   0.3   0.3   0.0   0.0   0.1   0.4   0.6   0.4   0.4  0.52  0.25  0.12  0.00  0.00   91.63   92.99    0.00    0.00    0.93
 1993 001   156     3     3     0.0   10.9   16557    4.4    6.5   0.2   0.1   0.2   0.2   0.3   0.3   0.4   0.3   0.0   0.0   0.1   0.5   0.7   0.5   0.4  0.52  0.25  0.12  0.00  0.00   92.31   93.22    0.00    0.00    0.93
 1993 002   157     3     3     0.0   11.2   16557    4.2    7.0   0.2   0.1   0.2   0.2   0.2   0.3   0.3   0.4   0.0   0.0   0.2   0.6   0.8   0.5   0.4  0.54  0.25  0.12  0.00  0.00   92.90   93.28    0.00    0.00    0.94
 1993 003   158     3     3     0.1   11.3   16556    4.0    7.3   0.2   0.2   0.2   0.2   0.2   0.2   0.3   0.4   0.0   0.0   0.3   0.7   0.8   0.6   0.5  0.55  0.26  0.12  0.00  0.00   93.53   93.37    0.00    0.00    0.94
 1993 004   159     3     3     0.2   11.4   16555    3.8    7.6   0.2   0.2   0.2   0.2   0.2   0.2   0.3   0.3   0.0   0.0   0.4   0.7   0.8   0.6   0.5  0.56  0.26  0.12  0.00  0.00   94.14   93.47    0.00    0.00    0.94
 1993 005   160     3     3     0.4   11.6   16555    3.8    7.8   0.3   0.2   0.2   0.2   0.2   0.2   0.2   0.3   0.0   0.0   0.4   0.8   0.8   0.6   0.5  0.57  0.27  0.12  0.00  0.00   94.79   93.60    0.01    0.00    0.95
 1993 006   161     3     3     0.4   11.7   16554    4.0    7.7   0.8   0.2   0.2   0.2   0.2   0.2   0.2   0.3   0.0   0.0   0.1   0.8   0.8   0.6   0.5  0.57  0.27  0.13  0.00  0.00   95.51   94.00    0.01    0.00    0.95
 1993 007   162     3     3     0.4   11.6   16554    4.1    7.5   0.3   0.5   0.2   0.2   0.2   0.2   0.2   0.2   0.0   0.0   0.1   0.5   0.8   0.6   0.6  0.58  0.28  0.13  0.00  0.00   96.30   94.41    0.01    0.00    0.96
 1993 008   163     3     3     0.4   11.7   16553    4.4    7.3   0.3   0.4   0.4   0.3   0.3   0.2   0.2   0.2   0.0   0.0   0.1   0.5   0.6   0.6   0.6  0.58  0.29  0.13  0.00  0.00   97.12   94.95    0.02    0.00    0.96
 1993 009   164     3     3     0.5   11.9   16552    4.0    7.9   0.3   0.3   0.3   0.3   0.2   0.2   0.3   0.2   0.0   0.0   0.2   0.6   0.7   0.7   0.6  0.59  0.29  0.13  0.00  0.00   97.97   95.07    0.02    0.00    0.97
 1993 010   165     3     3     0.5   12.2   16551    4.4    7.9   0.6   0.3   0.3   0.3   0.3   0.3   0.3   0.3   0.0   0.0   0.0   0.7   0.8   0.7   0.6  0.59  0.29  0.13  0.00  0.00   98.83   95.48    0.02    0.00    0.97
 1993 011   166     3     3     0.5   12.2   16551    4.5    7.7   0.3   0.5   0.3   0.3   0.3   0.3   0.3   0.3   0.0   0.0   0.2   0.5   0.7   0.7   0.6  0.59  0.30  0.13  0.00  0.00   99.70   95.95    0.02    0.00    0.98
 1993 012   167     3     3     0.5   12.1   16550    4.8    7.4   0.5   0.4   0.4   0.3   0.3   0.3   0.3   0.3   0.0   0.0   0.1   0.5   0.6   0.6   0.6  0.59  0.30  0.13  0.00  0.00  100.58   96.72    0.02    0.00    0.98
 1993 013   168     3     3     0.5   11.9   16549    4.7    7.2   0.4   0.4   0.3   0.3   0.3   0.3   0.3   0.3   0.0   0.0   0.1   0.5   0.6   0.6   0.6  0.59  0.30  0.13  0.00  0.00  101.49   97.42    0.02    0.00    0.98
 1993 014   169     3     3     0.5   11.9   16548    4.8    7.2   0.5   0.4   0.3   0.3   0.3   0.3   0.3   0.3   0.0   0.0   0.1   0.5   0.6   0.6   0.6  0.59  0.30  0.13  0.00  0.00  102.44   98.18    0.02    0.00    0.98
 1993 015   170     3     3     0.5   11.9   16548    4.7    7.1   0.1   0.3   0.4   0.3   0.3   0.3   0.3   0.3   0.0   0.0   0.1   0.4   0.6   0.6   0.6  0.59  0.31  0.13  0.00  0.00  103.41   98.91    0.02    0.00    0.99
 1993 016   171     3     3     0.6   12.8   16547    4.9    7.9   0.3   0.4   0.4   0.3   0.3   0.3   0.3   0.3   0.0   0.0   0.1   0.6   0.8   0.6   0.6  0.62  0.32  0.13  0.00  0.00  104.38   99.14    0.02    0.00    0.99
 1993 017   172     3     3     0.6   13.7   16546    5.2    8.6   0.5   0.4   0.4   0.3   0.3   0.3   0.3   0.3   0.0   0.0   0.1   0.7   0.9   0.7   0.6  0.65  0.32  0.13  0.00  0.00  105.35   99.45    0.02    0.00    0.99
 1993 018   173     3     3     0.6   14.7   16545    5.7    8.9   0.7   0.7   0.4   0.3   0.3   0.3   0.3   0.3   0.0   0.0   0.1   0.6   1.0   0.7   0.7  0.67  0.32  0.13  0.00  0.00  106.29  100.01    0.02    0.00    0.99
