*SOIL N BALANCE - CERES SOIL N&C ROUTINES

*DSSAT Cropping System Model Ver. 4.0.2.000               Aug 02, 2016; 15:29:24

*RUN   1        : UYMZ                    
 MODEL          : MZCER040 - Maize           
 EXPERIMENT     : UYMZ0107 MZ    late to create DSS                             
 TREATMENT  1   : UYMZ                    



                                         INITIAL Year/Doy      FINAL Year/Doy
                                                 1990/211            1991/011
SOIL N BALANCE                                  -----------kg N/ha-----------

   Soil Humus N                                  16646.04            16544.96
   Soil Litter N                                     0.00               10.99
   N in Surface Residue                              0.00                0.00
   Soil NO3                                         74.81                5.73
   Soil NH4                                         23.95                7.67
   Soil Urea                                         0.00                0.00

   Added to / Removed from Soil:
   N in Harvest Residues from Previous Crop          0.00
   N from Organic Applications                       0.00
   N from senesced plant matter                     15.29
   Fertilizer N                                      3.00
   Leached NO3                                                           5.68
   N Denitrified                                                         1.60
   N Uptake From Soil                                                  185.37
   Ammonia volatilization                                                1.12

   Total N balance                               16763.10            16763.10

================================================================================

*DSSAT Cropping System Model Ver. 4.0.2.000               Aug 02, 2016; 15:29:24

*RUN   2        : UYMZ                    
 MODEL          : MZCER040 - Maize           
 EXPERIMENT     : UYMZ0107 MZ    late to create DSS                             
 TREATMENT  1   : UYMZ                    



                                         INITIAL Year/Doy      FINAL Year/Doy
                                                 1991/211            1992/011
SOIL N BALANCE                                  -----------kg N/ha-----------

   Soil Humus N                                  16646.04            16545.54
   Soil Litter N                                     0.00               12.72
   N in Surface Residue                              0.00                0.00
   Soil NO3                                         74.81                6.02
   Soil NH4                                         23.95                7.86
   Soil Urea                                         0.00                0.00

   Added to / Removed from Soil:
   N in Harvest Residues from Previous Crop          0.00
   N from Organic Applications                       0.00
   N from senesced plant matter                     19.45
   Fertilizer N                                      3.00
   Leached NO3                                                          10.70
   N Denitrified                                                         0.48
   N Uptake From Soil                                                  182.45
   Ammonia volatilization                                                1.46

   Total N balance                               16767.25            16767.25

================================================================================

*DSSAT Cropping System Model Ver. 4.0.2.000               Aug 02, 2016; 15:29:24

*RUN   3        : UYMZ                    
 MODEL          : MZCER040 - Maize           
 EXPERIMENT     : UYMZ0107 MZ    late to create DSS                             
 TREATMENT  1   : UYMZ                    



                                         INITIAL Year/Doy      FINAL Year/Doy
                                                 1992/211            1993/018
SOIL N BALANCE                                  -----------kg N/ha-----------

   Soil Humus N                                  16646.04            16545.27
   Soil Litter N                                     0.00               15.41
   N in Surface Residue                              0.00                0.00
   Soil NO3                                         74.81                5.73
   Soil NH4                                         23.95                8.93
   Soil Urea                                         0.00                0.00

   Added to / Removed from Soil:
   N in Harvest Residues from Previous Crop          0.00
   N from Organic Applications                       0.00
   N from senesced plant matter                     20.93
   Fertilizer N                                      3.00
   Leached NO3                                                           0.60
   N Denitrified                                                         0.02
   N Uptake From Soil                                                  191.79
   Ammonia volatilization                                                0.99

   Total N balance                               16768.73            16768.73
